<?xml version="1.0" encoding="UTF-8"?>

<!-- generated on Thu Dec  5 11:01:14 2013 by SUMO netconvert Version 0.17.1
<?xml version="1.0" encoding="UTF-8"?>

<configuration xmlns:xsi="http://www.w3.org/2001/XMLSchema-instance" xsi:noNamespaceSchemaLocation="http://sumo.sf.net/xsd/netconvertConfiguration.xsd">

    <input>
        <sumo-net-file value="campus_to_home.net.xml"/>
    </input>

    <output>
        <plain-output-prefix value="campus_to_home"/>
    </output>

    <processing>
        <no-turnarounds value="true"/>
        <offset.disable-normalization value="true"/>
    </processing>

</configuration>
-->

<tlLogics version="0.13" xmlns:xsi="http://www.w3.org/2001/XMLSchema-instance" xsi:noNamespaceSchemaLocation="http://sumo.sf.net/xsd/tllogic_file.xsd">
    <tlLogic id="1152915186" type="static" programID="0" offset="0">
        <phase duration="31" state="Gr"/>
        <phase duration="6" state="yr"/>
        <phase duration="31" state="rG"/>
        <phase duration="6" state="ry"/>
    </tlLogic>
    <tlLogic id="1228552669" type="static" programID="0" offset="0">
        <phase duration="31" state="rrrGgGG"/>
        <phase duration="6" state="rrrygyy"/>
        <phase duration="6" state="rrrrGrr"/>
        <phase duration="6" state="rrrryrr"/>
        <phase duration="31" state="GGGrrrr"/>
        <phase duration="6" state="yyyrrrr"/>
    </tlLogic>
    <tlLogic id="170501822" type="static" programID="0" offset="0">
        <phase duration="31" state="ggGGGrr"/>
        <phase duration="4" state="ggyyyrr"/>
        <phase duration="6" state="GGrrrrr"/>
        <phase duration="4" state="yyrrrrr"/>
        <phase duration="31" state="rrGrrGG"/>
        <phase duration="4" state="rryrryy"/>
    </tlLogic>
    <tlLogic id="170506261" type="static" programID="0" offset="0">
        <phase duration="31" state="GGGrrgg"/>
        <phase duration="4" state="yyyrrgg"/>
        <phase duration="6" state="rrrrrGG"/>
        <phase duration="4" state="rrrrryy"/>
        <phase duration="31" state="GrrGGrr"/>
        <phase duration="4" state="yrryyrr"/>
    </tlLogic>
    <tlLogic id="170576347" type="static" programID="0" offset="0">
        <phase duration="31" state="GgGrGG"/>
        <phase duration="4" state="ygyryy"/>
        <phase duration="6" state="rGrrrr"/>
        <phase duration="4" state="ryrrrr"/>
        <phase duration="31" state="GrGGGr"/>
        <phase duration="4" state="yryyyr"/>
    </tlLogic>
    <tlLogic id="170657508" type="static" programID="0" offset="0">
        <phase duration="31" state="rrGGGG"/>
        <phase duration="4" state="rryyyy"/>
        <phase duration="31" state="GGrrrr"/>
        <phase duration="4" state="yyrrrr"/>
    </tlLogic>
    <tlLogic id="172642596" type="static" programID="0" offset="0">
        <phase duration="31" state="GGgGGGrrr"/>
        <phase duration="4" state="yygyyyrrr"/>
        <phase duration="6" state="rrGrrrrrr"/>
        <phase duration="4" state="rryrrrrrr"/>
        <phase duration="31" state="rrrrrrGGG"/>
        <phase duration="4" state="rrrrrryyy"/>
    </tlLogic>
    <tlLogic id="172650092" type="static" programID="0" offset="0">
        <phase duration="31" state="GGGgGr"/>
        <phase duration="4" state="yyygyr"/>
        <phase duration="6" state="rrrGrr"/>
        <phase duration="4" state="rrryrr"/>
        <phase duration="31" state="GrGrGG"/>
        <phase duration="4" state="yryryy"/>
    </tlLogic>
    <tlLogic id="172650093" type="static" programID="0" offset="0">
        <phase duration="31" state="GGgrrrGGgrrr"/>
        <phase duration="4" state="yygrrryygrrr"/>
        <phase duration="6" state="rrGrrrrrGrrr"/>
        <phase duration="4" state="rryrrrrryrrr"/>
        <phase duration="31" state="rrrGGgrrrGGg"/>
        <phase duration="4" state="rrryygrrryyg"/>
        <phase duration="6" state="rrrrrGrrrrrG"/>
        <phase duration="4" state="rrrrryrrrrry"/>
    </tlLogic>
    <tlLogic id="172656152" type="static" programID="0" offset="0">
        <phase duration="31" state="GgGGrrr"/>
        <phase duration="4" state="ygyyrrr"/>
        <phase duration="6" state="rGrrrrr"/>
        <phase duration="4" state="ryrrrrr"/>
        <phase duration="31" state="rrrrGGG"/>
        <phase duration="4" state="rrrryyy"/>
    </tlLogic>
    <tlLogic id="172656173" type="static" programID="0" offset="0">
        <phase duration="31" state="GGGrr"/>
        <phase duration="4" state="yyyrr"/>
        <phase duration="31" state="GrGGG"/>
        <phase duration="4" state="yryyy"/>
    </tlLogic>
    <tlLogic id="172663686" type="static" programID="0" offset="0">
        <phase duration="31" state="GGrrrGgrr"/>
        <phase duration="4" state="yyrrrygrr"/>
        <phase duration="6" state="rrrrrrGrr"/>
        <phase duration="4" state="rrrrrryrr"/>
        <phase duration="31" state="rrGGgrrGg"/>
        <phase duration="4" state="rryygrryg"/>
        <phase duration="6" state="rrrrGrrrG"/>
        <phase duration="4" state="rrrryrrry"/>
    </tlLogic>
    <tlLogic id="172663701" type="static" programID="0" offset="0">
        <phase duration="31" state="GGgrrrGGgrrr"/>
        <phase duration="4" state="yygrrryygrrr"/>
        <phase duration="6" state="rrGrrrrrGrrr"/>
        <phase duration="4" state="rryrrrrryrrr"/>
        <phase duration="31" state="rrrGGgrrrGGg"/>
        <phase duration="4" state="rrryygrrryyg"/>
        <phase duration="6" state="rrrrrGrrrrrG"/>
        <phase duration="4" state="rrrrryrrrrry"/>
    </tlLogic>
    <tlLogic id="172664339" type="static" programID="0" offset="0">
        <phase duration="31" state="GGGrrGg"/>
        <phase duration="4" state="yyyrryg"/>
        <phase duration="6" state="rrrrrrG"/>
        <phase duration="4" state="rrrrrry"/>
        <phase duration="31" state="rrGGGrr"/>
        <phase duration="4" state="rryyyrr"/>
    </tlLogic>
    <tlLogic id="172664389" type="static" programID="0" offset="0">
        <phase duration="31" state="GGGgGr"/>
        <phase duration="4" state="yyygyr"/>
        <phase duration="6" state="rrrGrr"/>
        <phase duration="4" state="rrryrr"/>
        <phase duration="31" state="GrGrGG"/>
        <phase duration="4" state="yryryy"/>
    </tlLogic>
    <tlLogic id="172664396" type="static" programID="0" offset="0">
        <phase duration="31" state="GGgrrrGGgrrr"/>
        <phase duration="5" state="yygrrryygrrr"/>
        <phase duration="6" state="rrGrrrrrGrrr"/>
        <phase duration="5" state="rryrrrrryrrr"/>
        <phase duration="31" state="rrrGGgrrrGGg"/>
        <phase duration="5" state="rrryygrrryyg"/>
        <phase duration="6" state="rrrrrGrrrrrG"/>
        <phase duration="5" state="rrrrryrrrrry"/>
    </tlLogic>
    <tlLogic id="172667197" type="static" programID="0" offset="0">
        <phase duration="31" state="rrrGGgrrrGGg"/>
        <phase duration="4" state="rrryygrrryyg"/>
        <phase duration="6" state="rrrrrGrrrrrG"/>
        <phase duration="4" state="rrrrryrrrrry"/>
        <phase duration="31" state="GGgrrrGGgrrr"/>
        <phase duration="4" state="yygrrryygrrr"/>
        <phase duration="6" state="rrGrrrrrGrrr"/>
        <phase duration="4" state="rryrrrrryrrr"/>
    </tlLogic>
    <tlLogic id="172667199" type="static" programID="0" offset="0">
        <phase duration="31" state="rrrGGgrrrGGg"/>
        <phase duration="4" state="rrryygrrryyg"/>
        <phase duration="6" state="rrrrrGrrrrrG"/>
        <phase duration="4" state="rrrrryrrrrry"/>
        <phase duration="31" state="GGgrrrGGgrrr"/>
        <phase duration="4" state="yygrrryygrrr"/>
        <phase duration="6" state="rrGrrrrrGrrr"/>
        <phase duration="4" state="rryrrrrryrrr"/>
    </tlLogic>
    <tlLogic id="172679941" type="static" programID="0" offset="0">
        <phase duration="31" state="rrrGGgrrrGGg"/>
        <phase duration="4" state="rrryygrrryyg"/>
        <phase duration="6" state="rrrrrGrrrrrG"/>
        <phase duration="4" state="rrrrryrrrrry"/>
        <phase duration="31" state="GGgrrrGGgrrr"/>
        <phase duration="4" state="yygrrryygrrr"/>
        <phase duration="6" state="rrGrrrrrGrrr"/>
        <phase duration="4" state="rryrrrrryrrr"/>
    </tlLogic>
    <tlLogic id="172681829" type="static" programID="0" offset="0">
        <phase duration="31" state="GgrrGG"/>
        <phase duration="4" state="ygrryy"/>
        <phase duration="6" state="rGrrrr"/>
        <phase duration="4" state="ryrrrr"/>
        <phase duration="31" state="rrGGGr"/>
        <phase duration="4" state="rryyyr"/>
    </tlLogic>
    <tlLogic id="172681837" type="static" programID="0" offset="0">
        <phase duration="31" state="rrrGgGG"/>
        <phase duration="4" state="rrrygyy"/>
        <phase duration="6" state="rrrrGrr"/>
        <phase duration="4" state="rrrryrr"/>
        <phase duration="31" state="GGGrrrr"/>
        <phase duration="4" state="yyyrrrr"/>
    </tlLogic>
    <tlLogic id="172681861" type="static" programID="0" offset="0">
        <phase duration="31" state="GGgrrrGGgrrr"/>
        <phase duration="4" state="yygrrryygrrr"/>
        <phase duration="6" state="rrGrrrrrGrrr"/>
        <phase duration="4" state="rryrrrrryrrr"/>
        <phase duration="31" state="rrrGGgrrrGGg"/>
        <phase duration="4" state="rrryygrrryyg"/>
        <phase duration="6" state="rrrrrGrrrrrG"/>
        <phase duration="4" state="rrrrryrrrrry"/>
    </tlLogic>
    <tlLogic id="172691779" type="static" programID="0" offset="0">
        <phase duration="31" state="GGgrrrGGgrrr"/>
        <phase duration="4" state="yygrrryygrrr"/>
        <phase duration="6" state="rrGrrrrrGrrr"/>
        <phase duration="4" state="rryrrrrryrrr"/>
        <phase duration="31" state="rrrGGgrrrGGg"/>
        <phase duration="4" state="rrryygrrryyg"/>
        <phase duration="6" state="rrrrrGrrrrrG"/>
        <phase duration="4" state="rrrrryrrrrry"/>
    </tlLogic>
    <tlLogic id="172697305" type="static" programID="0" offset="0">
        <phase duration="31" state="GGgrrrGGgrrr"/>
        <phase duration="4" state="yygrrryygrrr"/>
        <phase duration="6" state="rrGrrrrrGrrr"/>
        <phase duration="4" state="rryrrrrryrrr"/>
        <phase duration="31" state="rrrGGgrrrGGg"/>
        <phase duration="4" state="rrryygrrryyg"/>
        <phase duration="6" state="rrrrrGrrrrrG"/>
        <phase duration="4" state="rrrrryrrrrry"/>
    </tlLogic>
    <tlLogic id="172698076" type="static" programID="0" offset="0">
        <phase duration="31" state="GGgrrrGGgrrr"/>
        <phase duration="4" state="yygrrryygrrr"/>
        <phase duration="6" state="rrGrrrrrGrrr"/>
        <phase duration="4" state="rryrrrrryrrr"/>
        <phase duration="31" state="rrrGGgrrrGGg"/>
        <phase duration="4" state="rrryygrrryyg"/>
        <phase duration="6" state="rrrrrGrrrrrG"/>
        <phase duration="4" state="rrrrryrrrrry"/>
    </tlLogic>
    <tlLogic id="172698088" type="static" programID="0" offset="0">
        <phase duration="31" state="rrrGGGgrrrGGGg"/>
        <phase duration="4" state="rrryyygrrryyyg"/>
        <phase duration="6" state="rrrrrrGrrrrrrG"/>
        <phase duration="4" state="rrrrrryrrrrrry"/>
        <phase duration="31" state="GGgrrrrGGgrrrr"/>
        <phase duration="4" state="yygrrrryygrrrr"/>
        <phase duration="6" state="rrGrrrrrrGrrrr"/>
        <phase duration="4" state="rryrrrrrryrrrr"/>
    </tlLogic>
    <tlLogic id="172702789" type="static" programID="0" offset="0">
        <phase duration="31" state="GGGG"/>
        <phase duration="2" state="yyyy"/>
        <phase duration="31" state="GGGG"/>
        <phase duration="2" state="yyyy"/>
    </tlLogic>
    <tlLogic id="172711217" type="static" programID="0" offset="0">
        <phase duration="31" state="rrrGGgrrrGGg"/>
        <phase duration="4" state="rrryygrrryyg"/>
        <phase duration="6" state="rrrrrGrrrrrG"/>
        <phase duration="4" state="rrrrryrrrrry"/>
        <phase duration="31" state="GGgrrrGGgrrr"/>
        <phase duration="4" state="yygrrryygrrr"/>
        <phase duration="6" state="rrGrrrrrGrrr"/>
        <phase duration="4" state="rryrrrrryrrr"/>
    </tlLogic>
    <tlLogic id="172726176" type="static" programID="0" offset="0">
        <phase duration="31" state="rrrGGGgrrrGGGg"/>
        <phase duration="4" state="rrryyygrrryyyg"/>
        <phase duration="6" state="rrrrrrGrrrrrrG"/>
        <phase duration="4" state="rrrrrryrrrrrry"/>
        <phase duration="31" state="GGgrrrrGGgrrrr"/>
        <phase duration="4" state="yygrrrryygrrrr"/>
        <phase duration="6" state="rrGrrrrrrGrrrr"/>
        <phase duration="4" state="rryrrrrrryrrrr"/>
    </tlLogic>
    <tlLogic id="172731597" type="static" programID="0" offset="0">
        <phase duration="31" state="GGgrrrGGg"/>
        <phase duration="4" state="yygrrryyg"/>
        <phase duration="6" state="rrGrrrrrG"/>
        <phase duration="4" state="rryrrrrry"/>
        <phase duration="31" state="rrrGGGGrr"/>
        <phase duration="4" state="rrryyyyrr"/>
    </tlLogic>
    <tlLogic id="172755144" type="static" programID="0" offset="0">
        <phase duration="31" state="rrrGGgrrrGGg"/>
        <phase duration="4" state="rrryygrrryyg"/>
        <phase duration="6" state="rrrrrGrrrrrG"/>
        <phase duration="4" state="rrrrryrrrrry"/>
        <phase duration="31" state="GGgrrrGGgrrr"/>
        <phase duration="4" state="yygrrryygrrr"/>
        <phase duration="6" state="rrGrrrrrGrrr"/>
        <phase duration="4" state="rryrrrrryrrr"/>
    </tlLogic>
    <tlLogic id="172755527" type="static" programID="0" offset="0">
        <phase duration="31" state="rrGGGGgg"/>
        <phase duration="4" state="rryyyygg"/>
        <phase duration="6" state="rrrrrrGG"/>
        <phase duration="4" state="rrrrrryy"/>
        <phase duration="31" state="GGGrrGrr"/>
        <phase duration="4" state="yyyrryrr"/>
    </tlLogic>
    <tlLogic id="172755580" type="static" programID="0" offset="0">
        <phase duration="31" state="GgGrGG"/>
        <phase duration="4" state="ygyryy"/>
        <phase duration="6" state="rGrrrr"/>
        <phase duration="4" state="ryrrrr"/>
        <phase duration="31" state="GrGGGr"/>
        <phase duration="4" state="yryyyr"/>
    </tlLogic>
    <tlLogic id="172757515" type="static" programID="0" offset="0">
        <phase duration="31" state="GGgrrrGGgrrr"/>
        <phase duration="4" state="yygrrryygrrr"/>
        <phase duration="6" state="rrGrrrrrGrrr"/>
        <phase duration="4" state="rryrrrrryrrr"/>
        <phase duration="31" state="rrrGGgrrrGGg"/>
        <phase duration="4" state="rrryygrrryyg"/>
        <phase duration="6" state="rrrrrGrrrrrG"/>
        <phase duration="4" state="rrrrryrrrrry"/>
    </tlLogic>
    <tlLogic id="172759356" type="static" programID="0" offset="0">
        <phase duration="31" state="rrGG"/>
        <phase duration="4" state="rryy"/>
        <phase duration="31" state="GGrr"/>
        <phase duration="4" state="yyrr"/>
    </tlLogic>
    <tlLogic id="172759364" type="static" programID="0" offset="0">
        <phase duration="31" state="rrrGGgGGg"/>
        <phase duration="4" state="rrryygyyg"/>
        <phase duration="6" state="rrrrrGrrG"/>
        <phase duration="4" state="rrrrryrry"/>
        <phase duration="31" state="GGGGrrrrr"/>
        <phase duration="4" state="yyyyrrrrr"/>
    </tlLogic>
    <tlLogic id="172772626" type="static" programID="0" offset="0">
        <phase duration="31" state="GG"/>
        <phase duration="4" state="yy"/>
        <phase duration="31" state="GG"/>
        <phase duration="4" state="yy"/>
    </tlLogic>
    <tlLogic id="172772632" type="static" programID="0" offset="0">
        <phase duration="31" state="GG"/>
        <phase duration="4" state="yy"/>
        <phase duration="31" state="GG"/>
        <phase duration="4" state="yy"/>
    </tlLogic>
    <tlLogic id="1750099570" type="static" programID="0" offset="0">
        <phase duration="31" state="GgGrGG"/>
        <phase duration="4" state="ygyryy"/>
        <phase duration="6" state="rGrrrr"/>
        <phase duration="4" state="ryrrrr"/>
        <phase duration="31" state="GrGGGr"/>
        <phase duration="4" state="yryyyr"/>
    </tlLogic>
    <tlLogic id="2517796707" type="static" programID="0" offset="0">
        <phase duration="31" state="GG"/>
        <phase duration="4" state="yy"/>
        <phase duration="31" state="GG"/>
        <phase duration="4" state="yy"/>
    </tlLogic>
    <tlLogic id="2517903382" type="static" programID="0" offset="0">
        <phase duration="31" state="GG"/>
        <phase duration="4" state="yy"/>
        <phase duration="31" state="GG"/>
        <phase duration="4" state="yy"/>
    </tlLogic>
    <tlLogic id="360329361" type="static" programID="0" offset="0">
        <phase duration="31" state="GG"/>
        <phase duration="4" state="yy"/>
        <phase duration="31" state="GG"/>
        <phase duration="4" state="yy"/>
    </tlLogic>
    <tlLogic id="joinedS_0" type="static" programID="0" offset="0">
        <phase duration="31" state="rggGg"/>
        <phase duration="6" state="rggyg"/>
        <phase duration="6" state="rGGrG"/>
        <phase duration="6" state="ryyry"/>
        <phase duration="31" state="GGrGr"/>
        <phase duration="6" state="yyryr"/>
    </tlLogic>
    <tlLogic id="joinedS_1" type="static" programID="0" offset="0">
        <phase duration="31" state="rrrGGrrGG"/>
        <phase duration="6" state="rrryyrryy"/>
        <phase duration="31" state="GGrrrGGrr"/>
        <phase duration="6" state="yyrrryyrr"/>
        <phase duration="31" state="GrGrrGGrr"/>
        <phase duration="6" state="yryrryyrr"/>
    </tlLogic>
    <tlLogic id="joinedS_2" type="static" programID="0" offset="0">
        <phase duration="31" state="GGrrGGGrr"/>
        <phase duration="4" state="yyrryyyrr"/>
        <phase duration="35" state="rrggrrrgg"/>
        <phase duration="6" state="rrGGrrrGG"/>
        <phase duration="4" state="rryyrrryy"/>
    </tlLogic>
    <tlLogic id="joinedS_3" type="static" programID="0" offset="0">
        <phase duration="37" state="gggrrrrggg"/>
        <phase duration="6" state="GGGrrrrGGG"/>
        <phase duration="6" state="yyyrrrryyy"/>
        <phase duration="37" state="rrrggggrrr"/>
        <phase duration="6" state="rrrGGGGrrr"/>
        <phase duration="6" state="rrryyyyrrr"/>
    </tlLogic>
    <tlLogic id="joinedS_4" type="static" programID="0" offset="0">
        <phase duration="31" state="rrGGGGGGGGrr"/>
        <phase duration="6" state="rryyyyyyyyrr"/>
        <phase duration="31" state="GGGGGGGGGrrr"/>
        <phase duration="6" state="yyyyyyyyyrrr"/>
        <phase duration="31" state="GGGrGGGGGrGG"/>
        <phase duration="6" state="yyyryyyyyryy"/>
    </tlLogic>
    <tlLogic id="joinedS_5" type="static" programID="0" offset="0">
        <phase duration="37" state="rrgggrrggg"/>
        <phase duration="6" state="rrGGGrrGGG"/>
        <phase duration="6" state="rryyyrryyy"/>
        <phase duration="37" state="ggrrrggrrr"/>
        <phase duration="6" state="GGrrrGGrrr"/>
        <phase duration="6" state="yyrrryyrrr"/>
    </tlLogic>
    <tlLogic id="joinedS_6" type="static" programID="0" offset="0">
        <phase duration="35" state="rrgggggggrr"/>
        <phase duration="6" state="rrGGGGGGGrr"/>
        <phase duration="4" state="rryyyyyyyrr"/>
        <phase duration="35" state="ggrrrrrrrgg"/>
        <phase duration="6" state="GGrrrrrrrGG"/>
        <phase duration="4" state="yyrrrrrrryy"/>
    </tlLogic>
    <tlLogic id="joinedS_7" type="static" programID="0" offset="0">
        <phase duration="31" state="rrGGgggg"/>
        <phase duration="4" state="rryygggg"/>
        <phase duration="6" state="rrrrGGGG"/>
        <phase duration="4" state="rrrryyyy"/>
        <phase duration="31" state="GGrrrrrr"/>
        <phase duration="4" state="yyrrrrrr"/>
    </tlLogic>

    <connection from="-106604957#1" to="29416842#6" fromLane="0" toLane="0" tl="joinedS_6" linkIndex="9"/>
    <connection from="-106604957#1" to="-106604957#0" fromLane="0" toLane="0" tl="joinedS_6" linkIndex="10"/>
    <connection from="-106604957#12" to="-16709282#2" fromLane="0" toLane="0" tl="172755144" linkIndex="6"/>
    <connection from="-106604957#12" to="-106604957#11" fromLane="0" toLane="0" tl="172755144" linkIndex="7"/>
    <connection from="-106604957#12" to="135165248#0" fromLane="0" toLane="0" tl="172755144" linkIndex="8"/>
    <connection from="-106604957#7" to="-16704105#12" fromLane="0" toLane="0" tl="172691779" linkIndex="9"/>
    <connection from="-106604957#7" to="-106604957#6" fromLane="0" toLane="0" tl="172691779" linkIndex="10"/>
    <connection from="-106604957#7" to="-16710883#14" fromLane="0" toLane="0" tl="172691779" linkIndex="11"/>
    <connection from="-106847385#1" to="-89354369#1" fromLane="0" toLane="0" tl="170576347" linkIndex="4"/>
    <connection from="-106847385#1" to="-106847385#0" fromLane="1" toLane="1" tl="170576347" linkIndex="5"/>
    <connection from="-106847385#7" to="-106847385#6" fromLane="0" toLane="0" tl="170657508" linkIndex="4"/>
    <connection from="-106847385#7" to="-106847385#6" fromLane="1" toLane="1" tl="170657508" linkIndex="5"/>
    <connection from="-106847385#8" to="-106847385#7" fromLane="0" toLane="1" tl="170501822" linkIndex="5"/>
    <connection from="-106847385#8" to="16521853#1" fromLane="1" toLane="0" tl="170501822" linkIndex="6"/>
    <connection from="-130524461#0" to="-16707072#31" fromLane="0" toLane="0" tl="172667199" linkIndex="9"/>
    <connection from="-130524461#0" to="-16701864" fromLane="0" toLane="0" tl="172667199" linkIndex="10"/>
    <connection from="-130524461#0" to="16707072#32" fromLane="0" toLane="0" tl="172667199" linkIndex="11"/>
    <connection from="-132604103#0" to="132603964#0" fromLane="0" toLane="0" tl="1228552669" linkIndex="5"/>
    <connection from="-132604103#0" to="-132604102" fromLane="0" toLane="0" tl="1228552669" linkIndex="6"/>
    <connection from="-135165248#0" to="106604957#12" fromLane="0" toLane="0" tl="172755144" linkIndex="9"/>
    <connection from="-135165248#0" to="-16709282#2" fromLane="0" toLane="0" tl="172755144" linkIndex="10"/>
    <connection from="-135165248#0" to="-106604957#11" fromLane="0" toLane="0" tl="172755144" linkIndex="11"/>
    <connection from="-142824851" to="99725640#2" fromLane="0" toLane="0" tl="joinedS_1" linkIndex="2"/>
    <connection from="-163273108#0" to="16701621#5" fromLane="0" toLane="0" tl="1750099570" linkIndex="2"/>
    <connection from="-163273108#0" to="-16701621#4" fromLane="0" toLane="1" tl="1750099570" linkIndex="3"/>
    <connection from="-16540143#5" to="-16540143#4" fromLane="0" toLane="1" tl="170506261" linkIndex="3"/>
    <connection from="-16540143#5" to="28970051#1" fromLane="1" toLane="0" tl="170506261" linkIndex="4"/>
    <connection from="-16546014#5" to="219960339#3" fromLane="0" toLane="0" tl="joinedS_5" linkIndex="5"/>
    <connection from="-16546014#5" to="-16546014#4" fromLane="0" toLane="0" tl="joinedS_5" linkIndex="6"/>
    <connection from="-16700229#0" to="-16711726#9" fromLane="0" toLane="0" tl="172650092" linkIndex="4"/>
    <connection from="-16700229#0" to="16711726#10" fromLane="0" toLane="1" tl="172650092" linkIndex="5"/>
    <connection from="-16700229#1" to="-16711843#13" fromLane="0" toLane="0" tl="172650093" linkIndex="9"/>
    <connection from="-16700229#1" to="-16700229#0" fromLane="0" toLane="0" tl="172650093" linkIndex="10"/>
    <connection from="-16700229#1" to="16711843#14" fromLane="0" toLane="0" tl="172650093" linkIndex="11"/>
    <connection from="-16701559#0" to="-16709316#5" fromLane="0" toLane="0" tl="172663686" linkIndex="0"/>
    <connection from="-16701559#0" to="72729091#0" fromLane="0" toLane="1" tl="172663686" linkIndex="1"/>
    <connection from="-16701559#19" to="16704769#8" fromLane="0" toLane="0" tl="172663701" linkIndex="0"/>
    <connection from="-16701559#19" to="-16701559#18" fromLane="0" toLane="0" tl="172663701" linkIndex="1"/>
    <connection from="-16701559#19" to="-16704769#7" fromLane="0" toLane="0" tl="172663701" linkIndex="2"/>
    <connection from="-16701621#0" to="72875759#2" fromLane="0" toLane="0" tl="172664339" linkIndex="0"/>
    <connection from="-16701621#0" to="-59148434#5" fromLane="1" toLane="0" tl="172664339" linkIndex="1"/>
    <connection from="-16701621#15" to="16704769#0" fromLane="0" toLane="0" tl="172664389" linkIndex="0"/>
    <connection from="-16701621#15" to="-16701621#14" fromLane="1" toLane="1" tl="172664389" linkIndex="1"/>
    <connection from="-16701621#5" to="-16701621#4" fromLane="0" toLane="0" tl="1750099570" linkIndex="0"/>
    <connection from="-16701621#5" to="163273108#0" fromLane="1" toLane="0" tl="1750099570" linkIndex="1"/>
    <connection from="-16701864" to="-16704864#17" fromLane="0" toLane="0" tl="172667197" linkIndex="9"/>
    <connection from="-16701864" to="-103615483" fromLane="0" toLane="0" tl="172667197" linkIndex="10"/>
    <connection from="-16701864" to="16704864#18" fromLane="0" toLane="1" tl="172667197" linkIndex="11"/>
    <connection from="-16703055#5" to="-16703055#4" fromLane="0" toLane="0" tl="2517903382" linkIndex="0"/>
    <connection from="-16704617#0" to="-209613507#2" fromLane="0" toLane="0" tl="172679941" linkIndex="9"/>
    <connection from="-16704617#0" to="-16703058#8" fromLane="0" toLane="0" tl="172679941" linkIndex="10"/>
    <connection from="-16704617#0" to="209613507#3" fromLane="0" toLane="1" tl="172679941" linkIndex="11"/>
    <connection from="-16704769#0" to="-16701621#14" fromLane="0" toLane="0" tl="172664389" linkIndex="4"/>
    <connection from="-16704769#0" to="16701621#15" fromLane="0" toLane="1" tl="172664389" linkIndex="5"/>
    <connection from="-16704769#10" to="-16704769#9" fromLane="0" toLane="0" tl="360329361" linkIndex="1"/>
    <connection from="-16704769#8" to="-16701559#18" fromLane="0" toLane="0" tl="172663701" linkIndex="9"/>
    <connection from="-16704769#8" to="-16704769#7" fromLane="0" toLane="0" tl="172663701" linkIndex="10"/>
    <connection from="-16704769#8" to="16701559#19" fromLane="0" toLane="0" tl="172663701" linkIndex="11"/>
    <connection from="-16704864#13" to="-141319702#1" fromLane="0" toLane="0" tl="172698076" linkIndex="0"/>
    <connection from="-16704864#13" to="-16704864#12" fromLane="1" toLane="1" tl="172698076" linkIndex="1"/>
    <connection from="-16704864#13" to="-16708992#3" fromLane="1" toLane="0" tl="172698076" linkIndex="2"/>
    <connection from="-16704864#18" to="16701864" fromLane="0" toLane="0" tl="172667197" linkIndex="0"/>
    <connection from="-16704864#18" to="-16704864#17" fromLane="1" toLane="1" tl="172667197" linkIndex="1"/>
    <connection from="-16704864#18" to="-103615483" fromLane="1" toLane="0" tl="172667197" linkIndex="2"/>
    <connection from="-16705093" to="235488477#0" fromLane="0" toLane="0" tl="172681829" linkIndex="0"/>
    <connection from="-16705093" to="-16703240#15" fromLane="0" toLane="0" tl="172681829" linkIndex="1"/>
    <connection from="-16705867#8" to="29416842#4" fromLane="0" toLane="0" tl="joinedS_2" linkIndex="7"/>
    <connection from="-16705867#8" to="-16705867#7" fromLane="0" toLane="0" tl="joinedS_2" linkIndex="8"/>
    <connection from="-16705903#0" to="-16711726#18" fromLane="0" toLane="0" tl="172697305" linkIndex="9"/>
    <connection from="-16705903#0" to="-16704769#11" fromLane="0" toLane="0" tl="172697305" linkIndex="10"/>
    <connection from="-16705903#0" to="209613507#0" fromLane="0" toLane="1" tl="172697305" linkIndex="11"/>
    <connection from="-16705903#1" to="-16711846#0" fromLane="0" toLane="0" tl="172711217" linkIndex="9"/>
    <connection from="-16705903#1" to="-16705903#0" fromLane="0" toLane="0" tl="172711217" linkIndex="10"/>
    <connection from="-16705903#1" to="16711846#1" fromLane="0" toLane="0" tl="172711217" linkIndex="11"/>
    <connection from="-16706797#5" to="16711082#0" fromLane="0" toLane="0" tl="172664396" linkIndex="3"/>
    <connection from="-16706797#5" to="-16706797#4" fromLane="0" toLane="0" tl="172664396" linkIndex="4"/>
    <connection from="-16706797#5" to="-16701621#18" fromLane="0" toLane="1" tl="172664396" linkIndex="5"/>
    <connection from="-16707072#32" to="130524461#0" fromLane="0" toLane="0" tl="172667199" linkIndex="0"/>
    <connection from="-16707072#32" to="-16707072#31" fromLane="0" toLane="0" tl="172667199" linkIndex="1"/>
    <connection from="-16707072#32" to="-16701864" fromLane="0" toLane="0" tl="172667199" linkIndex="2"/>
    <connection from="-16709316#0" to="16711726#0" fromLane="0" toLane="0" tl="172698088" linkIndex="3"/>
    <connection from="-16709316#0" to="16711116#0" fromLane="0" toLane="0" tl="172698088" linkIndex="4"/>
    <connection from="-16709316#0" to="16711116#0" fromLane="1" toLane="1" tl="172698088" linkIndex="5"/>
    <connection from="-16709316#0" to="-16704864#23" fromLane="1" toLane="1" tl="172698088" linkIndex="6"/>
    <connection from="-16709316#3" to="-16709316#2" fromLane="0" toLane="0" tl="172755580" linkIndex="0"/>
    <connection from="-16709316#3" to="-16712292" fromLane="1" toLane="0" tl="172755580" linkIndex="1"/>
    <connection from="-16710027#0" to="-29334390#0" fromLane="0" toLane="0" tl="172757515" linkIndex="9"/>
    <connection from="-16710027#0" to="-134976234#1" fromLane="0" toLane="0" tl="172757515" linkIndex="10"/>
    <connection from="-16710027#0" to="29334390#1" fromLane="0" toLane="1" tl="172757515" linkIndex="11"/>
    <connection from="-16711082#0" to="-16706797#4" fromLane="0" toLane="0" tl="172664396" linkIndex="0"/>
    <connection from="-16711082#0" to="-16701621#18" fromLane="1" toLane="1" tl="172664396" linkIndex="1"/>
    <connection from="-16711082#0" to="16706797#5" fromLane="1" toLane="0" tl="172664396" linkIndex="2"/>
    <connection from="-16711116#0" to="-16704864#23" fromLane="0" toLane="0" tl="172698088" linkIndex="10"/>