<?xml version="1.0" encoding="UTF-8"?>

<!-- generated on Thu Dec  5 11:01:14 2013 by SUMO netconvert Version 0.17.1
<?xml version="1.0" encoding="UTF-8"?>

<configuration xmlns:xsi="http://www.w3.org/2001/XMLSchema-instance" xsi:noNamespaceSchemaLocation="http://sumo.sf.net/xsd/netconvertConfiguration.xsd">

    <input>
        <sumo-net-file value="campus_to_home.net.xml"/>
    </input>

    <output>
        <plain-output-prefix value="campus_to_home"/>
    </output>

    <processing>
        <no-turnarounds value="true"/>
        <offset.disable-normalization value="true"/>
    </processing>

</configuration>
-->

<connections version="0.13" xmlns:xsi="http://www.w3.org/2001/XMLSchema-instance" xsi:noNamespaceSchemaLocation="http://sumo.sf.net/xsd/connections_file.xsd">
    <connection from="-100591659" to="-106604957#9" fromLane="0" toLane="0"/>
    <connection from="-100591659" to="106604957#10" fromLane="0" toLane="0"/>

    <connection from="-100591661" to="-96059158#2" fromLane="0" toLane="0"/>
    <connection from="-100591661" to="96059158#3" fromLane="0" toLane="0"/>

    <connection from="-100591662" to="-96059158#1" fromLane="0" toLane="0"/>
    <connection from="-100591662" to="96059158#2" fromLane="0" toLane="0"/>

    <connection from="-100591665" to="168964938#4" fromLane="0" toLane="0"/>
    <connection from="-100591665" to="-168964938#3" fromLane="0" toLane="0"/>

    <connection from="-102523547#0" to="102523550#1" fromLane="0" toLane="0"/>

    <connection from="-102523547#1" to="-102523547#10" fromLane="0" toLane="0"/>
    <connection from="-102523547#1" to="-102523547#0" fromLane="0" toLane="0"/>

    <connection from="-102523547#10" to="-102523547#9" fromLane="0" toLane="0"/>
    <connection from="-102523547#10" to="-102523551#4" fromLane="0" toLane="0"/>

    <connection from="-102523547#2" to="-102523547#1" fromLane="0" toLane="0"/>
    <connection from="-102523547#2" to="-102523566#1" fromLane="0" toLane="0"/>
    <connection from="-102523547#2" to="102523566#2" fromLane="0" toLane="0"/>

    <connection from="-102523547#3" to="-102523547#2" fromLane="0" toLane="0"/>
    <connection from="-102523547#3" to="-102523566#2" fromLane="0" toLane="0"/>

    <connection from="-102523547#4" to="-102523547#3" fromLane="0" toLane="0"/>
    <connection from="-102523547#4" to="-102523559" fromLane="0" toLane="0"/>

    <connection from="-102523547#5" to="-102523547#4" fromLane="0" toLane="0"/>
    <connection from="-102523547#5" to="102523552" fromLane="0" toLane="0"/>

    <connection from="-102523547#6" to="-102523547#5" fromLane="0" toLane="0"/>
    <connection from="-102523547#6" to="102523551#0" fromLane="0" toLane="0"/>

    <connection from="-102523547#7" to="-102523547#6" fromLane="0" toLane="0"/>
    <connection from="-102523547#7" to="102523563" fromLane="0" toLane="0"/>

    <connection from="-102523547#8" to="-102523547#7" fromLane="0" toLane="0"/>
    <connection from="-102523547#8" to="102523553" fromLane="0" toLane="0"/>

    <connection from="-102523547#9" to="-102523547#8" fromLane="0" toLane="0"/>
    <connection from="-102523547#9" to="102523558" fromLane="0" toLane="0"/>

    <connection from="-102523551#0" to="102523547#6" fromLane="0" toLane="0"/>
    <connection from="-102523551#0" to="-102523547#5" fromLane="0" toLane="0"/>

    <connection from="-102523551#1" to="-102523563" fromLane="0" toLane="0"/>
    <connection from="-102523551#1" to="-102523551#0" fromLane="0" toLane="0"/>

    <connection from="-102523551#2" to="-102523553" fromLane="0" toLane="0"/>
    <connection from="-102523551#2" to="-102523551#1" fromLane="0" toLane="0"/>

    <connection from="-102523551#3" to="-102523558" fromLane="0" toLane="0"/>
    <connection from="-102523551#3" to="-102523551#2" fromLane="0" toLane="0"/>

    <connection from="-102523551#4" to="-102523551#3" fromLane="0" toLane="0"/>
    <connection from="-102523551#4" to="102523565#0" fromLane="0" toLane="0"/>

    <connection from="-102523552" to="102523547#5" fromLane="0" toLane="0"/>
    <connection from="-102523552" to="-102523547#4" fromLane="0" toLane="0"/>

    <connection from="-102523553" to="102523547#8" fromLane="0" toLane="0"/>
    <connection from="-102523553" to="-102523547#7" fromLane="0" toLane="0"/>

    <connection from="-102523554" to="-102523569#1" fromLane="0" toLane="0"/>
    <connection from="-102523554" to="102523569#2" fromLane="0" toLane="0"/>

    <connection from="-102523556" to="102523567#1" fromLane="0" toLane="0"/>
    <connection from="-102523556" to="-102523567#0" fromLane="0" toLane="0"/>

    <connection from="-102523558" to="102523547#9" fromLane="0" toLane="0"/>
    <connection from="-102523558" to="-102523547#8" fromLane="0" toLane="0"/>

    <connection from="-102523559" to="-102523564#0" fromLane="0" toLane="0"/>
    <connection from="-102523559" to="102523564#1" fromLane="0" toLane="0"/>

    <connection from="-102523560" to="-102523565#1" fromLane="0" toLane="0"/>

    <connection from="-102523562" to="-235488477#9" fromLane="0" toLane="0"/>
    <connection from="-102523562" to="235488477#10" fromLane="0" toLane="0"/>

    <connection from="-102523563" to="102523547#7" fromLane="0" toLane="0"/>
    <connection from="-102523563" to="-102523547#6" fromLane="0" toLane="0"/>

    <connection from="-102523564#0" to="102523566#1" fromLane="0" toLane="0"/>
    <connection from="-102523564#0" to="-102523564#2" fromLane="0" toLane="0"/>
    <connection from="-102523564#0" to="-102523566#0" fromLane="0" toLane="0"/>

    <connection from="-102523564#1" to="102523559" fromLane="0" toLane="0"/>
    <connection from="-102523564#1" to="-102523564#0" fromLane="0" toLane="0"/>

    <connection from="-102523564#2" to="-102523564#1" fromLane="0" toLane="0"/>
    <connection from="-102523564#2" to="102523566#0" fromLane="0" toLane="0"/>

    <connection from="-102523565#0" to="102523551#4" fromLane="0" toLane="0"/>
    <connection from="-102523565#0" to="-102523551#3" fromLane="0" toLane="0"/>

    <connection from="-102523565#1" to="-102523565#0" fromLane="0" toLane="0"/>
    <connection from="-102523565#1" to="-102523560" fromLane="0" toLane="0"/>

    <connection from="-102523566#0" to="-102523564#1" fromLane="0" toLane="0"/>
    <connection from="-102523566#0" to="102523564#2" fromLane="0" toLane="0"/>

    <connection from="-102523566#1" to="-102523564#2" fromLane="0" toLane="0"/>
    <connection from="-102523566#1" to="-102523566#0" fromLane="0" toLane="0"/>
    <connection from="-102523566#1" to="102523564#0" fromLane="0" toLane="0"/>

    <connection from="-102523566#2" to="-102523547#1" fromLane="0" toLane="0"/>
    <connection from="-102523566#2" to="-102523566#1" fromLane="0" toLane="0"/>
    <connection from="-102523566#2" to="102523547#2" fromLane="0" toLane="0"/>

    <connection from="-102523567#0" to="235488477#9" fromLane="0" toLane="0"/>
    <connection from="-102523567#0" to="-235488477#8" fromLane="0" toLane="0"/>

    <connection from="-102523567#1" to="-102523567#0" fromLane="0" toLane="0"/>
    <connection from="-102523567#1" to="102523556" fromLane="0" toLane="0"/>

    <connection from="-102523569#0" to="235488477#8" fromLane="0" toLane="0"/>
    <connection from="-102523569#0" to="-235488477#7" fromLane="0" toLane="0"/>

    <connection from="-102523569#1" to="-102523556" fromLane="0" toLane="0"/>
    <connection from="-102523569#1" to="-102523569#0" fromLane="0" toLane="0"/>

    <connection from="-102523569#2" to="102523554" fromLane="0" toLane="0"/>
    <connection from="-102523569#2" to="-102523569#1" fromLane="0" toLane="0"/>

    <connection from="-103403310" to="-103403314#1" fromLane="0" toLane="0"/>
    <connection from="-103403310" to="103403314#2" fromLane="0" toLane="0"/>

    <connection from="-103403311" to="43573446#0" fromLane="0" toLane="0"/>

    <connection from="-103403312#0" to="43573446#1" fromLane="0" toLane="0"/>
    <connection from="-103403312#0" to="-43573446#0" fromLane="0" toLane="0"/>

    <connection from="-103403312#1" to="-103403312#0" fromLane="0" toLane="0"/>
    <connection from="-103403312#1" to="130524464" fromLane="0" toLane="0"/>

    <connection from="-103403314#0" to="16701559#7" fromLane="0" toLane="0"/>
    <connection from="-103403314#0" to="-16701559#6" fromLane="0" toLane="0"/>

    <connection from="-103403314#1" to="-103403314#0" fromLane="0" toLane="0"/>

    <connection from="-103403314#2" to="103403310" fromLane="0" toLane="0"/>
    <connection from="-103403314#2" to="-103403314#1" fromLane="0" toLane="0"/>

    <connection from="-103403314#3" to="-103403314#2" fromLane="0" toLane="0"/>

    <connection from="-103403323#0" to="-103403332#2" fromLane="0" toLane="0"/>
    <connection from="-103403323#0" to="103403334#0" fromLane="0" toLane="0"/>

    <connection from="-103403323#1" to="-103403323#0" fromLane="0" toLane="0"/>

    <connection from="-103403323#2" to="-103403323#1" fromLane="0" toLane="0"/>

    <connection from="-103403329#0" to="189480709#1" fromLane="0" toLane="0"/>
    <connection from="-103403329#0" to="-189480709#0" fromLane="0" toLane="0"/>

    <connection from="-103403329#1" to="-103403329#0" fromLane="0" toLane="0"/>

    <connection from="-103403329#2" to="16701621#8" fromLane="0" toLane="0"/>
    <connection from="-103403329#2" to="-103403329#1" fromLane="0" toLane="0"/>
    <connection from="-103403329#2" to="-16701621#7" fromLane="0" toLane="1"/>

    <connection from="-103403329#3" to="-103403329#2" fromLane="0" toLane="0"/>

    <connection from="-103403332#0" to="16701559#3" fromLane="0" toLane="0"/>
    <connection from="-103403332#0" to="-16701559#2" fromLane="0" toLane="0"/>

    <connection from="-103403332#1" to="-103403332#0" fromLane="0" toLane="0"/>

    <connection from="-103403332#2" to="-103403332#1" fromLane="0" toLane="0"/>

    <connection from="-103615468" to="-103615477#2" fromLane="0" toLane="0"/>
    <connection from="-103615468" to="103615477#3" fromLane="0" toLane="0"/>

    <connection from="-103615469" to="-103615486#2" fromLane="0" toLane="0"/>
    <connection from="-103615469" to="103615486#3" fromLane="0" toLane="0"/>

    <connection from="-103615471#0" to="103615493#2" fromLane="0" toLane="0"/>
    <connection from="-103615471#0" to="-103615493#1" fromLane="0" toLane="0"/>

    <connection from="-103615471#1" to="103615484#0" fromLane="0" toLane="0"/>
    <connection from="-103615471#1" to="-103615471#0" fromLane="0" toLane="0"/>

    <connection from="-103615471#10" to="103615472#0" fromLane="0" toLane="0"/>
    <connection from="-103615471#10" to="-103615471#9" fromLane="0" toLane="0"/>

    <connection from="-103615471#2" to="-103615471#1" fromLane="0" toLane="0"/>
    <connection from="-103615471#2" to="-103615476#1" fromLane="0" toLane="0"/>
    <connection from="-103615471#2" to="103615476#2" fromLane="0" toLane="0"/>

    <connection from="-103615471#3" to="-103615471#2" fromLane="0" toLane="0"/>
    <connection from="-103615471#3" to="103615487" fromLane="0" toLane="0"/>

    <connection from="-103615471#4" to="-103615471#3" fromLane="0" toLane="0"/>
    <connection from="-103615471#4" to="103615475" fromLane="0" toLane="0"/>

    <connection from="-103615471#5" to="-103615471#4" fromLane="0" toLane="0"/>

    <connection from="-103615471#6" to="-103615471#5" fromLane="0" toLane="0"/>
    <connection from="-103615471#6" to="103615473#0" fromLane="0" toLane="0"/>

    <connection from="-103615471#7" to="-103615471#6" fromLane="0" toLane="0"/>
    <connection from="-103615471#7" to="103615477#0" fromLane="0" toLane="0"/>

    <connection from="-103615471#8" to="-103615471#7" fromLane="0" toLane="0"/>

    <connection from="-103615471#9" to="-103615472#1" fromLane="0" toLane="0"/>
    <connection from="-103615471#9" to="-103615471#8" fromLane="0" toLane="0"/>

    <connection from="-103615472#0" to="-103615471#9" fromLane="0" toLane="0"/>
    <connection from="-103615472#0" to="103615471#10" fromLane="0" toLane="0"/>

    <connection from="-103615472#1" to="-103615472#0" fromLane="0" toLane="0"/>

    <connection from="-103615473#0" to="103615471#6" fromLane="0" toLane="0"/>
    <connection from="-103615473#0" to="-103615471#5" fromLane="0" toLane="0"/>

    <connection from="-103615473#1" to="-103615473#0" fromLane="0" toLane="0"/>
    <connection from="-103615473#1" to="103615478" fromLane="0" toLane="0"/>

    <connection from="-103615475" to="103615471#4" fromLane="0" toLane="0"/>
    <connection from="-103615475" to="-103615471#3" fromLane="0" toLane="0"/>

    <connection from="-103615476#1" to="103615481#1" fromLane="0" toLane="0"/>
    <connection from="-103615476#1" to="-103615476#0" fromLane="0" toLane="0"/>
    <connection from="-103615476#1" to="-103615481#0" fromLane="0" toLane="0"/>

    <connection from="-103615476#2" to="103615471#2" fromLane="0" toLane="0"/>
    <connection from="-103615476#2" to="-103615471#1" fromLane="0" toLane="0"/>
    <connection from="-103615476#2" to="-103615476#1" fromLane="0" toLane="0"/>

    <connection from="-103615477#0" to="103615471#7" fromLane="0" toLane="0"/>
    <connection from="-103615477#0" to="-103615471#6" fromLane="0" toLane="0"/>

    <connection from="-103615477#1" to="-103615477#0" fromLane="0" toLane="0"/>
    <connection from="-103615477#1" to="-103615473#1" fromLane="0" toLane="0"/>

    <connection from="-103615477#2" to="-103615477#1" fromLane="0" toLane="0"/>
    <connection from="-103615477#2" to="-103615478" fromLane="0" toLane="0"/>

    <connection from="-103615477#3" to="103615468" fromLane="0" toLane="0"/>
    <connection from="-103615477#3" to="-103615477#2" fromLane="0" toLane="0"/>

    <connection from="-103615478" to="103615473#1" fromLane="0" toLane="0"/>
    <connection from="-103615478" to="-103615473#0" fromLane="0" toLane="0"/>

    <connection from="-103615481#1" to="-103615476#0" fromLane="0" toLane="0"/>
    <connection from="-103615481#1" to="-103615481#0" fromLane="0" toLane="0"/>
    <connection from="-103615481#1" to="103615476#1" fromLane="0" toLane="0"/>

    <connection from="-103615483" to="-103615486#1" fromLane="0" toLane="0"/>
    <connection from="-103615483" to="103615486#2" fromLane="0" toLane="0"/>

    <connection from="-103615484#0" to="-103615471#0" fromLane="0" toLane="0"/>
    <connection from="-103615484#0" to="103615471#1" fromLane="0" toLane="0"/>

    <connection from="-103615484#1" to="-103615484#0" fromLane="0" toLane="0"/>

    <connection from="-103615485#0" to="103615493#4" fromLane="0" toLane="0"/>
    <connection from="-103615485#0" to="-103615493#3" fromLane="0" toLane="0"/>

    <connection from="-103615485#1" to="103615495" fromLane="0" toLane="0"/>
    <connection from="-103615485#1" to="-103615485#0" fromLane="0" toLane="0"/>

    <connection from="-103615485#2" to="-103615485#1" fromLane="0" toLane="0"/>
    <connection from="-103615485#2" to="-103615471#10" fromLane="0" toLane="0"/>

    <connection from="-103615485#3" to="-103615495" fromLane="0" toLane="0"/>
    <connection from="-103615485#3" to="-103615485#2" fromLane="0" toLane="0"/>

    <connection from="-103615486#1" to="-103615493#0" fromLane="0" toLane="0"/>
    <connection from="-103615486#1" to="-103615486#0" fromLane="0" toLane="0"/>
    <connection from="-103615486#1" to="103615493#1" fromLane="0" toLane="0"/>

    <connection from="-103615486#2" to="103615483" fromLane="0" toLane="0"/>
    <connection from="-103615486#2" to="-103615486#1" fromLane="0" toLane="0"/>

    <connection from="-103615486#3" to="103615469" fromLane="0" toLane="0"/>
    <connection from="-103615486#3" to="-103615486#2" fromLane="0" toLane="0"/>

    <connection from="-103615487" to="103615471#3" fromLane="0" toLane="0"/>
    <connection from="-103615487" to="-103615471#2" fromLane="0" toLane="0"/>

    <connection from="-103615488" to="16708992#3" fromLane="0" toLane="0"/>
    <connection from="-103615488" to="-16708992#2" fromLane="0" toLane="0"/>

    <connection from="-103615493#0" to="16704864#17" fromLane="0" toLane="0"/>
    <connection from="-103615493#0" to="-16704864#16" fromLane="0" toLane="1"/>

    <connection from="-103615493#1" to="103615486#1" fromLane="0" toLane="0"/>
    <connection from="-103615493#1" to="-103615493#0" fromLane="0" toLane="0"/>
    <connection from="-103615493#1" to="-103615486#0" fromLane="0" toLane="0"/>

    <connection from="-103615493#2" to="-103615493#1" fromLane="0" toLane="0"/>
    <connection from="-103615493#2" to="103615471#0" fromLane="0" toLane="0"/>

    <connection from="-103615493#3" to="-103615493#2" fromLane="0" toLane="0"/>
    <connection from="-103615493#3" to="-103615484#1" fromLane="0" toLane="0"/>

    <connection from="-103615493#4" to="-103615493#3" fromLane="0" toLane="0"/>
    <connection from="-103615493#4" to="103615485#0" fromLane="0" toLane="0"/>

    <connection from="-103615493#5" to="-103615493#4" fromLane="0" toLane="0"/>
    <connection from="-103615493#5" to="-103615485#3" fromLane="0" toLane="0"/>

    <connection from="-103615493#6" to="-103615486#3" fromLane="0" toLane="0"/>
    <connection from="-103615493#6" to="-103615493#5" fromLane="0" toLane="0"/>

    <connection from="-103615495" to="-103615485#0" fromLane="0" toLane="0"/>
    <connection from="-103615495" to="103615485#1" fromLane="0" toLane="0"/>

    <connection from="-103618936" to="16711843#1" fromLane="0" toLane="0"/>
    <connection from="-103618936" to="-16711843#0" fromLane="0" toLane="0"/>

    <connection from="-103618937#0" to="103618941#2" fromLane="0" toLane="0"/>
    <connection from="-103618937#0" to="-103618941#1" fromLane="0" toLane="0"/>

    <connection from="-103618937#1" to="-103618937#0" fromLane="0" toLane="0"/>
    <connection from="-103618937#1" to="-103618937#2" fromLane="0" toLane="0"/>

    <connection from="-103618937#2" to="-103618937#1" fromLane="0" toLane="0"/>

    <connection from="-103618938" to="16711116#1" fromLane="0" toLane="0"/>
    <connection from="-103618938" to="-16711116#0" fromLane="0" toLane="1"/>

    <connection from="-103618941#1" to="-103618936" fromLane="0" toLane="0"/>
    <connection from="-103618941#1" to="-103618941#0" fromLane="0" toLane="0"/>

    <connection from="-103618941#2" to="-103618941#1" fromLane="0" toLane="0"/>
    <connection from="-103618941#2" to="103618937#0" fromLane="0" toLane="0"/>

    <connection from="-106136495" to="16530185#3" fromLane="0" toLane="0"/>
    <connection from="-106136495" to="-16530185#2" fromLane="0" toLane="0"/>

    <connection from="-106136510#0" to="-106136510#2" fromLane="0" toLane="0"/>

    <connection from="-106136510#1" to="-106136510#0" fromLane="0" toLane="0"/>
    <connection from="-106136510#1" to="-106136495" fromLane="0" toLane="0"/>

    <connection from="-106136510#2" to="-106136510#1" fromLane="0" toLane="0"/>

    <connection from="-106486982" to="99012909#1" fromLane="0" toLane="0"/>
    <connection from="-106486982" to="-99012909#0" fromLane="0" toLane="0"/>

    <connection from="-106486990#0" to="-106604957#1" fromLane="0" toLane="0"/>
    <connection from="-106486990#0" to="106604957#2" fromLane="0" toLane="0"/>

    <connection from="-106486990#1" to="106487046" fromLane="0" toLane="0"/>
    <connection from="-106486990#1" to="-106486990#0" fromLane="0" toLane="0"/>

    <connection from="-106486996" to="96059148#12" fromLane="0" toLane="0"/>
    <connection from="-106486996" to="-96059148#11" fromLane="0" toLane="0"/>

    <connection from="-106487001#0" to="-16705100#4" fromLane="0" toLane="0"/>
    <connection from="-106487001#0" to="16705100#5" fromLane="0" toLane="0"/>

    <connection from="-106487001#1" to="-106487001#0" fromLane="0" toLane="0"/>
    <connection from="-106487001#1" to="-106487001#5" fromLane="0" toLane="0"/>

    <connection from="-106487001#2" to="-106487001#1" fromLane="0" toLane="0"/>
    <connection from="-106487001#2" to="-106487021" fromLane="0" toLane="0"/>

    <connection from="-106487001#3" to="-106487001#2" fromLane="0" toLane="0"/>

    <connection from="-106487001#4" to="-106487001#3" fromLane="0" toLane="0"/>

    <connection from="-106487001#5" to="-106487001#4" fromLane="0" toLane="0"/>
    <connection from="-106487001#5" to="106487021" fromLane="0" toLane="0"/>

    <connection from="-106487020" to="96059148#13" fromLane="0" toLane="0"/>
    <connection from="-106487020" to="-96059148#12" fromLane="0" toLane="0"/>

    <connection from="-106487021" to="106487001#5" fromLane="0" toLane="0"/>
    <connection from="-106487021" to="-106487001#4" fromLane="0" toLane="0"/>

    <connection from="-106487040" to="-99012908#0" fromLane="0" toLane="0"/>
    <connection from="-106487040" to="99012908#1" fromLane="0" toLane="0"/>

    <connection from="-106487046" to="-106486990#0" fromLane="0" toLane="0"/>
    <connection from="-106487046" to="106486990#1" fromLane="0" toLane="0"/>

    <connection from="-106487053" to="-106487028" fromLane="0" toLane="0"/>

    <connection from="-106521837" to="99725622#6" fromLane="0" toLane="0"/>
    <connection from="-106521837" to="-99725622#5" fromLane="0" toLane="0"/>

    <connection from="-106521838" to="-106521893#2" fromLane="0" toLane="0"/>

    <connection from="-106521840" to="-106521896#1" fromLane="0" toLane="0"/>
    <connection from="-106521840" to="106521896#2" fromLane="0" toLane="0"/>

    <connection from="-106521847" to="-106521896#4" fromLane="0" toLane="0"/>

    <connection from="-106521848#0" to="106521880#2" fromLane="0" toLane="0"/>
    <connection from="-106521848#0" to="-106521880#1" fromLane="0" toLane="0"/>

    <connection from="-106521848#1" to="-106521848#0" fromLane="0" toLane="0"/>

    <connection from="-106521880#0" to="-106521838" fromLane="0" toLane="0"/>

    <connection from="-106521880#1" to="-106521880#0" fromLane="0" toLane="0"/>

    <connection from="-106521880#2" to="-106521880#1" fromLane="0" toLane="0"/>
    <connection from="-106521880#2" to="106521848#0" fromLane="0" toLane="0"/>

    <connection from="-106521890" to="-106521840" fromLane="0" toLane="0"/>

    <connection from="-106521893#0" to="-106521847" fromLane="0" toLane="0"/>

    <connection from="-106521893#1" to="-106521893#0" fromLane="0" toLane="0"/>

    <connection from="-106521893#2" to="-106521893#1" fromLane="0" toLane="0"/>

    <connection from="-106521896#0" to="-106521890" fromLane="0" toLane="0"/>

    <connection from="-106521896#1" to="-106521896#0" fromLane="0" toLane="0"/>

    <connection from="-106521896#2" to="106521840" fromLane="0" toLane="0"/>
    <connection from="-106521896#2" to="-106521896#1" fromLane="0" toLane="0"/>

    <connection from="-106521896#3" to="-106521837" fromLane="0" toLane="0"/>
    <connection from="-106521896#3" to="-106521896#2" fromLane="0" toLane="0"/>

    <connection from="-106521896#4" to="-106521880#2" fromLane="0" toLane="0"/>
    <connection from="-106521896#4" to="-106521896#3" fromLane="0" toLane="0"/>

    <connection from="-106604932#0" to="-16701621#2" fromLane="0" toLane="0"/>
    <connection from="-106604932#0" to="16701621#3" fromLane="0" toLane="1"/>

    <connection from="-106604932#1" to="-106604932#0" fromLane="0" toLane="0"/>

    <connection from="-106604957#0" to="-16709621#1" fromLane="0" toLane="0"/>
    <connection from="-106604957#0" to="16710084#5" fromLane="0" toLane="1"/>

    <connection from="-106604957#1" to="29416842#6" fromLane="0" toLane="0"/>
    <connection from="-106604957#1" to="-106604957#0" fromLane="0" toLane="0"/>

    <connection from="-106604957#10" to="100591659" fromLane="0" toLane="0"/>
    <connection from="-106604957#10" to="-106604957#9" fromLane="0" toLane="0"/>

    <connection from="-106604957#11" to="-106604957#10" fromLane="0" toLane="0"/>
    <connection from="-106604957#11" to="137627892#0" fromLane="0" toLane="0"/>

    <connection from="-106604957#12" to="-16709282#2" fromLane="0" toLane="0"/>
    <connection from="-106604957#12" to="-106604957#11" fromLane="0" toLane="0"/>
    <connection from="-106604957#12" to="135165248#0" fromLane="0" toLane="0"/>

    <connection from="-106604957#2" to="106486990#0" fromLane="0" toLane="0"/>
    <connection from="-106604957#2" to="-106604957#1" fromLane="0" toLane="0"/>

    <connection from="-106604957#3" to="-106604957#2" fromLane="0" toLane="0"/>

    <connection from="-106604957#4" to="16704105#0" fromLane="0" toLane="0"/>
    <connection from="-106604957#4" to="-106604957#3" fromLane="0" toLane="0"/>

    <connection from="-106604957#5" to="-16708693#4" fromLane="0" toLane="0"/>
    <connection from="-106604957#5" to="-106604957#4" fromLane="0" toLane="0"/>

    <connection from="-106604957#6" to="-106604957#5" fromLane="0" toLane="0"/>
    <connection from="-106604957#6" to="98976927#0" fromLane="0" toLane="0"/>

    <connection from="-106604957#7" to="-16704105#12" fromLane="0" toLane="0"/>
    <connection from="-106604957#7" to="-106604957#6" fromLane="0" toLane="0"/>
    <connection from="-106604957#7" to="-16710883#14" fromLane="0" toLane="0"/>

    <connection from="-106604957#8" to="-106604957#7" fromLane="0" toLane="0"/>

    <connection from="-106604957#9" to="168964938#3" fromLane="0" toLane="0"/>
    <connection from="-106604957#9" to="-106604957#8" fromLane="0" toLane="0"/>
    <connection from="-106604957#9" to="-168964938#2" fromLane="0" toLane="0"/>

    <connection from="-106635337" to="-16705984#0" fromLane="0" toLane="0"/>
    <connection from="-106635337" to="16705984#1" fromLane="0" toLane="0"/>

    <connection from="-106635352#0" to="-106635337" fromLane="0" toLane="0"/>
    <connection from="-106635352#0" to="-106635352#1" fromLane="0" toLane="0"/>

    <connection from="-106635352#1" to="106635355#0" fromLane="0" toLane="0"/>
    <connection from="-106635352#1" to="-106635352#0" fromLane="0" toLane="0"/>

    <connection from="-106635355#0" to="-106635352#0" fromLane="0" toLane="0"/>
    <connection from="-106635355#0" to="106635352#1" fromLane="0" toLane="0"/>

    <connection from="-106635355#1" to="-106635355#0" fromLane="0" toLane="0"/>

    <connection from="-106847385#1" to="-89354369#1" fromLane="0" toLane="0"/>
    <connection from="-106847385#1" to="-106847385#0" fromLane="1" toLane="1"/>

    <connection from="-106847385#2" to="-106847385#1" fromLane="0" toLane="0"/>
    <connection from="-106847385#2" to="-245003996#2" fromLane="1" toLane="0"/>

    <connection from="-106847385#3" to="16534673" fromLane="0" toLane="0"/>
    <connection from="-106847385#3" to="-106847385#2" fromLane="1" toLane="1"/>

    <connection from="-106847385#4" to="-106847385#3" fromLane="0" toLane="0"/>
    <connection from="-106847385#4" to="16531859#0" fromLane="1" toLane="0"/>

    <connection from="-106847385#5" to="-142481511#2" fromLane="0" toLane="0"/>
    <connection from="-106847385#5" to="-106847385#4" fromLane="1" toLane="1"/>
    <connection from="-106847385#5" to="16524653#0" fromLane="1" toLane="0"/>

    <connection from="-106847385#6" to="-106847385#5" fromLane="0" toLane="0"/>
    <connection from="-106847385#6" to="-106847385#5" fromLane="1" toLane="1"/>
    <connection from="-106847385#6" to="99245426#0" fromLane="1" toLane="0"/>

    <connection from="-106847385#7" to="-106847385#6" fromLane="0" toLane="0"/>
    <connection from="-106847385#7" to="-106847385#6" fromLane="1" toLane="1"/>

    <connection from="-106847385#8" to="-106847385#7" fromLane="0" toLane="1"/>
    <connection from="-106847385#8" to="16521853#1" fromLane="1" toLane="0"/>

    <connection from="-106850831#0" to="-89354366#2" fromLane="0" toLane="0"/>

    <connection from="-106850831#1" to="-106850835" fromLane="0" toLane="0"/>
    <connection from="-106850831#1" to="-106850831#0" fromLane="0" toLane="0"/>

    <connection from="-109817672#0" to="-134976234#0" fromLane="0" toLane="0"/>
    <connection from="-109817672#0" to="134976234#1" fromLane="0" toLane="0"/>

    <connection from="-109817672#1" to="109817675#0" fromLane="0" toLane="0"/>
    <connection from="-109817672#1" to="-109817675#1" fromLane="0" toLane="0"/>
    <connection from="-109817672#1" to="-109817672#0" fromLane="0" toLane="0"/>

    <connection from="-109817672#2" to="-109817672#1" fromLane="0" toLane="0"/>
    <connection from="-109817672#2" to="109817678" fromLane="0" toLane="0"/>

    <connection from="-109817672#3" to="-109817672#2" fromLane="0" toLane="0"/>
    <connection from="-109817672#3" to="109817676" fromLane="0" toLane="0"/>

    <connection from="-109817672#4" to="-109817672#3" fromLane="0" toLane="0"/>
    <connection from="-109817672#4" to="109817673" fromLane="0" toLane="0"/>

    <connection from="-109817673" to="109817672#4" fromLane="0" toLane="0"/>
    <connection from="-109817673" to="-109817672#3" fromLane="0" toLane="0"/>

    <connection from="-109817675#0" to="-109817672#0" fromLane="0" toLane="0"/>
    <connection from="-109817675#0" to="109817672#1" fromLane="0" toLane="0"/>
    <connection from="-109817675#0" to="-109817675#1" fromLane="0" toLane="0"/>

    <connection from="-109817675#1" to="-109817675#0" fromLane="0" toLane="0"/>

    <connection from="-109817676" to="109817672#3" fromLane="0" toLane="0"/>
    <connection from="-109817676" to="-109817672#2" fromLane="0" toLane="0"/>

    <connection from="-109817678" to="109817672#2" fromLane="0" toLane="0"/>
    <connection from="-109817678" to="-109817672#1" fromLane="0" toLane="0"/>

    <connection from="-109819641#1" to="-109819641#0" fromLane="0" toLane="0"/>

    <connection from="-109819641#2" to="-109819641#1" fromLane="0" toLane="0"/>
    <connection from="-109819641#2" to="16707843#0" fromLane="0" toLane="0"/>

    <connection from="-109819641#3" to="-109819641#2" fromLane="0" toLane="0"/>
    <connection from="-109819641#3" to="-109819641#4" fromLane="0" toLane="0"/>

    <connection from="-109819641#4" to="-109819641#3" fromLane="0" toLane="0"/>

    <connection from="-109819643#0" to="77486674#6" fromLane="0" toLane="0"/>
