<?xml version="1.0" encoding="UTF-8"?>

<!-- generated on Thu Dec  5 11:01:14 2013 by SUMO netconvert Version 0.17.1
<?xml version="1.0" encoding="UTF-8"?>

<configuration xmlns:xsi="http://www.w3.org/2001/XMLSchema-instance" xsi:noNamespaceSchemaLocation="http://sumo.sf.net/xsd/netconvertConfiguration.xsd">

    <input>
        <sumo-net-file value="campus_to_home.net.xml"/>
    </input>

    <output>
        <plain-output-prefix value="campus_to_home"/>
    </output>

    <processing>
        <no-turnarounds value="true"/>
        <offset.disable-normalization value="true"/>
    </processing>

</configuration>
-->

<edges version="0.13" xmlns:xsi="http://www.w3.org/2001/XMLSchema-instance" xsi:noNamespaceSchemaLocation="http://sumo.sf.net/xsd/edges_file.xsd">
    <edge id="-100591659" from="1162981958" to="1162981961" priority="7" type="highway.service" numLanes="1" speed="13.89"/>
    <edge id="-100591661" from="563482330" to="1112950641" priority="7" type="highway.service" numLanes="1" speed="13.89"/>
    <edge id="-100591662" from="1162981960" to="1112950536" priority="7" type="highway.service" numLanes="1" speed="13.89"/>
    <edge id="-100591665" from="563481944" to="1162981954" priority="7" type="highway.service" numLanes="1" speed="13.89"/>
    <edge id="-102523547#0" from="1184078792" to="1184079024" priority="7" type="highway.service" numLanes="1" speed="13.89"/>
    <edge id="-102523547#1" from="1184078936" to="1184078792" priority="7" type="highway.service" numLanes="1" speed="13.89" shape="3229.63,1752.49 3227.30,1765.97 3228.38,1792.38 3230.74,1801.37 3231.71,1810.57 3233.63,1818.17 3236.50,1824.65 3239.63,1829.30 3245.03,1835.84"/>
    <edge id="-102523547#10" from="1184078792" to="1184078980" priority="7" type="highway.service" numLanes="1" speed="13.89"/>
    <edge id="-102523547#2" from="1184078818" to="1184078936" priority="7" type="highway.service" numLanes="1" speed="13.89" shape="3244.20,1715.39 3237.79,1724.89 3233.19,1736.26 3230.68,1746.08 3229.63,1752.49"/>
    <edge id="-102523547#3" from="1184079023" to="1184078818" priority="7" type="highway.service" numLanes="1" speed="13.89"/>
    <edge id="-102523547#4" from="1184079035" to="1184079023" priority="7" type="highway.service" numLanes="1" speed="13.89" shape="3335.44,1686.78 3330.96,1674.44 3328.96,1670.73 3326.47,1668.16 3323.07,1665.80 3318.93,1665.03 3313.15,1666.05 3299.69,1671.07 3286.90,1677.24 3273.59,1685.92 3261.42,1695.08 3249.92,1705.63 3248.56,1707.96"/>
    <edge id="-102523547#5" from="1184078788" to="1184079035" priority="7" type="highway.service" numLanes="1" speed="13.89"/>
    <edge id="-102523547#6" from="1184078962" to="1184078788" priority="7" type="highway.service" numLanes="1" speed="13.89"/>
    <edge id="-102523547#7" from="1184078787" to="1184078962" priority="7" type="highway.service" numLanes="1" speed="13.89" shape="3316.24,1744.23 3319.82,1736.61 3322.63,1734.38 3332.25,1731.48"/>
    <edge id="-102523547#8" from="1184078848" to="1184078787" priority="7" type="highway.service" numLanes="1" speed="13.89"/>
    <edge id="-102523547#9" from="1184078980" to="1184078848" priority="7" type="highway.service" numLanes="1" speed="13.89" shape="3306.08,1813.19 3296.65,1789.38 3296.47,1786.39 3305.06,1768.07"/>
    <edge id="-102523551#0" from="1184078876" to="1184078788" priority="7" type="highway.service" numLanes="1" speed="13.89" shape="3357.14,1794.48 3362.93,1792.76 3366.21,1790.07 3368.60,1785.99 3368.66,1782.55 3349.74,1726.20"/>
    <edge id="-102523551#1" from="1184079097" to="1184078876" priority="7" type="highway.service" numLanes="1" speed="13.89"/>
    <edge id="-102523551#2" from="1184079165" to="1184079097" priority="7" type="highway.service" numLanes="1" speed="13.89"/>
    <edge id="-102523551#3" from="1184078976" to="1184079165" priority="7" type="highway.service" numLanes="1" speed="13.89"/>
    <edge id="-102523551#4" from="1184078980" to="1184078976" priority="7" type="highway.service" numLanes="1" speed="13.89"/>
    <edge id="-102523552" from="1184078850" to="1184079035" priority="7" type="highway.service" numLanes="1" speed="13.89" shape="3355.82,1687.09 3352.73,1680.61 3335.44,1686.78"/>
    <edge id="-102523553" from="1184079097" to="1184078787" priority="7" type="highway.service" numLanes="1" speed="13.89"/>
    <edge id="-102523554" from="1184078934" to="1184078882" priority="7" type="highway.service" numLanes="1" speed="13.89" shape="3280.40,1980.60 3290.23,1984.46 3293.13,1989.33 3300.79,1997.74 3307.63,2001.55"/>
    <edge id="-102523556" from="1184079002" to="1184079167" priority="7" type="highway.service" numLanes="1" speed="13.89"/>
    <edge id="-102523557" from="1184078928" to="1184078867" priority="7" type="highway.service" numLanes="1" speed="13.89"/>
    <edge id="-102523558" from="1184079165" to="1184078848" priority="7" type="highway.service" numLanes="1" speed="13.89"/>
    <edge id="-102523559" from="1184079023" to="1184078940" priority="7" type="highway.service" numLanes="1" speed="13.89"/>
    <edge id="-102523560" from="1184079019" to="1184078889" priority="7" type="highway.service" numLanes="1" speed="13.89" shape="3325.85,1825.55 3283.25,1848.51 3291.03,1862.66 3334.76,1842.20"/>
    <edge id="-102523562" from="1184079055" to="1184079131" priority="7" type="highway.service" numLanes="1" speed="13.89"/>
    <edge id="-102523563" from="1184078876" to="1184078962" priority="7" type="highway.service" numLanes="1" speed="13.89"/>
    <edge id="-102523564#0" from="1184078940" to="1184078996" priority="7" type="highway.service" numLanes="1" speed="13.89" shape="3235.33,1698.23 3227.52,1708.40 3222.96,1717.48 3217.42,1729.53 3214.24,1738.64 3211.74,1749.09"/>
    <edge id="-102523564#1" from="1184078814" to="1184078940" priority="7" type="highway.service" numLanes="1" speed="13.89" shape="3191.76,1745.31 3194.72,1735.50 3198.41,1724.11 3202.56,1712.26 3207.39,1701.12 3212.38,1693.18 3219.46,1685.06 3235.33,1698.23"/>
    <edge id="-102523564#2" from="1184078996" to="1184078814" priority="7" type="highway.service" numLanes="1" speed="13.89" shape="3211.74,1749.09 3210.15,1758.98 3209.06,1767.90 3209.28,1779.60 3209.29,1790.84 3211.80,1803.97 3213.86,1816.17 3216.91,1824.49 3219.95,1834.18 3223.71,1841.83 3228.60,1850.65 3232.15,1858.05 3217.72,1865.33 3208.53,1851.86 3202.52,1841.40 3198.12,1831.00 3193.78,1817.84 3190.33,1805.60 3187.85,1791.57 3186.95,1779.16 3187.65,1766.79 3188.06,1757.85 3191.76,1745.31"/>
    <edge id="-102523565#0" from="1184079019" to="1184078976" priority="7" type="highway.service" numLanes="1" speed="13.89"/>
    <edge id="-102523565#1" from="1184078889" to="1184079019" priority="7" type="highway.service" numLanes="1" speed="13.89"/>
    <edge id="-102523566#0" from="1184078996" to="1184078814" priority="7" type="highway.service" numLanes="1" speed="13.89"/>
    <edge id="-102523566#1" from="1184078936" to="1184078996" priority="7" type="highway.service" numLanes="1" speed="13.89" shape="3229.63,1752.49 3219.11,1750.49 3211.74,1749.09"/>
    <edge id="-102523566#2" from="1184078818" to="1184078936" priority="7" type="highway.service" numLanes="1" speed="13.89" shape="3244.20,1715.39 3249.45,1717.78 3252.84,1721.06 3253.44,1725.66 3243.58,1746.57 3241.67,1749.97 3237.03,1751.71 3229.63,1752.49"/>
    <edge id="-102523567#0" from="1184079167" to="1184078812" priority="7" type="highway.service" numLanes="1" speed="13.89"/>
    <edge id="-102523567#1" from="1184078798" to="1184079167" priority="7" type="highway.service" numLanes="1" speed="13.89" shape="3293.59,1942.77 3308.25,1946.97 3318.36,1948.55 3320.76,1943.55"/>
    <edge id="-102523569#0" from="1184079002" to="1184078859" priority="7" type="highway.service" numLanes="1" speed="13.89"/>
    <edge id="-102523569#1" from="1184078882" to="1184079002" priority="7" type="highway.service" numLanes="1" speed="13.89" shape="3307.63,2001.55 3351.05,1984.52 3361.44,1983.35 3366.54,1982.31 3390.46,1972.69 3394.48,1967.27 3396.17,1963.17 3394.43,1952.93"/>
    <edge id="-102523569#2" from="1184078897" to="1184078882" priority="7" type="highway.service" numLanes="1" speed="13.89" shape="3368.23,2105.52 3349.87,2067.08 3341.69,2061.18 3333.06,2055.05 3327.44,2048.29 3307.63,2001.55"/>
    <edge id="-103403310" from="1194029704" to="1194029753" priority="7" type="highway.service" numLanes="1" speed="13.89"/>
    <edge id="-103403311" from="550305961" to="550305880" priority="7" type="highway.service" numLanes="1" speed="13.89" shape="3505.94,3125.47 3466.94,3106.60 3511.50,3023.47 3510.87,3016.51 3510.22,3010.33 3506.55,3000.22"/>
    <edge id="-103403312#0" from="1437304381" to="1194029736" priority="7" type="highway.service" numLanes="1" speed="13.89" shape="3486.82,3014.68 3492.26,3017.32 3501.65,2998.08"/>
    <edge id="-103403312#1" from="1194029648" to="1437304381" priority="7" type="highway.service" numLanes="1" speed="13.89" shape="3468.12,2989.50 3454.63,2982.97 3448.26,2996.03 3486.82,3014.68"/>
    <edge id="-103403314#0" from="1194029624" to="1194029679" priority="7" type="highway.service" numLanes="1" speed="13.89"/>
    <edge id="-103403314#1" from="1194029753" to="1194029624" priority="7" type="highway.service" numLanes="1" speed="13.89"/>
    <edge id="-103403314#2" from="1194029677" to="1194029753" priority="7" type="highway.service" numLanes="1" speed="13.89" shape="3636.49,2891.78 3642.85,2897.44 3677.08,2915.44 3679.28,2920.97 3675.54,2928.29"/>
    <edge id="-103403314#3" from="1345140252" to="1194029677" priority="7" type="highway.service" numLanes="1" speed="13.89" shape="3643.09,2868.05 3640.39,2873.55 3635.31,2883.79 3636.49,2891.78"/>
    <edge id="-103403323#0" from="593870157" to="1194029701" priority="7" type="highway.service" numLanes="1" speed="13.89"/>
    <edge id="-103403323#1" from="593870152" to="593870157" priority="7" type="highway.service" numLanes="1" speed="13.89"/>
    <edge id="-103403323#2" from="1194029734" to="593870152" priority="7" type="highway.service" numLanes="1" speed="13.89" shape="3583.39,2876.13 3585.83,2871.33 3556.87,2856.85 3549.63,2855.72"/>
    <edge id="-103403329#0" from="570046912" to="2000880599" priority="7" type="highway.service" numLanes="1" speed="13.89"/>
    <edge id="-103403329#1" from="172664368" to="570046912" priority="7" type="highway.service" numLanes="1" speed="13.89"/>
    <edge id="-103403329#2" from="1849678135" to="172664368" priority="7" type="highway.service" numLanes="1" speed="13.89"/>
    <edge id="-103403329#3" from="1750099559" to="1849678135" priority="7" type="highway.service" numLanes="1" speed="13.89" shape="3869.13,2518.84 3856.84,2532.52 3854.77,2552.74 3855.48,2560.64 3857.87,2567.82 3858.42,2574.96 3858.24,2584.39 3854.19,2602.71 3833.50,2669.94"/>
    <edge id="-103403332#0" from="593870194" to="1194029637" priority="7" type="highway.service" numLanes="1" speed="13.89"/>
    <edge id="-103403332#1" from="593870182" to="593870194" priority="7" type="highway.service" numLanes="1" speed="13.89"/>
    <edge id="-103403332#2" from="1194029701" to="593870182" priority="7" type="highway.service" numLanes="1" speed="13.89"/>
    <edge id="-103615468" from="1196393821" to="1196393728" priority="7" type="highway.service" numLanes="1" speed="13.89"/>
    <edge id="-103615469" from="1196393729" to="1196393896" priority="7" type="highway.service" numLanes="1" speed="13.89" shape="3114.55,3068.17 3121.65,3054.22 3127.52,3042.88"/>
    <edge id="-103615471#0" from="1196393939" to="1196393836" priority="7" type="highway.service" numLanes="1" speed="13.89" shape="3113.66,2873.44 3097.47,2907.29 3074.20,2955.90"/>
    <edge id="-103615471#1" from="1196393928" to="1196393939" priority="7" type="highway.service" numLanes="1" speed="13.89" shape="3144.01,2797.99 3119.30,2851.03 3113.66,2873.44"/>
    <edge id="-103615471#10" from="1196393892" to="1196393734" priority="7" type="highway.service" numLanes="1" speed="13.89"/>
    <edge id="-103615471#2" from="1196393879" to="1196393928" priority="7" type="highway.service" numLanes="1" speed="13.89"/>
    <edge id="-103615471#3" from="1196393863" to="1196393879" priority="7" type="highway.service" numLanes="1" speed="13.89"/>
    <edge id="-103615471#4" from="1196393679" to="1196393863" priority="7" type="highway.service" numLanes="1" speed="13.89" shape="3152.37,2873.49 3154.92,2867.96 3179.18,2815.57"/>
    <edge id="-103615471#5" from="1196393840" to="1196393679" priority="7" type="highway.service" numLanes="1" speed="13.89" shape="3206.47,2902.23 3202.74,2898.30 3152.37,2873.49"/>
    <edge id="-103615471#6" from="1196393695" to="1196393840" priority="7" type="highway.service" numLanes="1" speed="13.89" shape="3268.55,2934.82 3210.55,2906.54 3206.47,2902.23"/>
    <edge id="-103615471#7" from="2000888834" to="1196393695" priority="7" type="highway.service" numLanes="1" speed="13.89" shape="3255.65,2962.43 3260.13,2952.83 3268.55,2934.82"/>
    <edge id="-103615471#8" from="1196393936" to="2000888834" priority="7" type="highway.service" numLanes="1" speed="13.89"/>
    <edge id="-103615471#9" from="1196393734" to="1196393936" priority="7" type="highway.service" numLanes="1" speed="13.89"/>
    <edge id="-103615472#0" from="1345140172" to="1196393734" priority="7" type="highway.service" numLanes="1" speed="13.89" shape="3175.31,2948.17 3174.62,2949.55 3245.36,2984.50"/>
    <edge id="-103615472#1" from="1196393936" to="1345140172" priority="7" type="highway.service" numLanes="1" speed="13.89" shape="3252.52,2969.15 3181.71,2935.26 3175.31,2948.17"/>
    <edge id="-103615473#0" from="1196393907" to="1196393840" priority="7" type="highway.service" numLanes="1" speed="13.89" shape="3234.43,2900.40 3212.77,2889.84 3206.47,2902.23"/>
    <edge id="-103615473#1" from="1196393943" to="1196393907" priority="7" type="highway.service" numLanes="1" speed="13.89"/>
    <edge id="-103615475" from="1196393751" to="1196393863" priority="7" type="highway.service" numLanes="1" speed="13.89"/>
    <edge id="-103615476#0" from="1196393743" to="1196393755" priority="7" type="highway.service" numLanes="1" speed="13.89" shape="3126.55,2789.31 3107.12,2779.66 3116.65,2759.78"/>
    <edge id="-103615476#1" from="1196393928" to="1196393743" priority="7" type="highway.service" numLanes="1" speed="13.89"/>
    <edge id="-103615476#2" from="1196393701" to="1196393928" priority="7" type="highway.service" numLanes="1" speed="13.89"/>
    <edge id="-103615477#0" from="1196393943" to="1196393695" priority="7" type="highway.service" numLanes="1" speed="13.89"/>
    <edge id="-103615477#1" from="1196393718" to="1196393943" priority="7" type="highway.service" numLanes="1" speed="13.89" shape="3242.88,2883.29 3283.96,2903.23 3275.56,2920.47"/>
    <edge id="-103615477#2" from="1196393728" to="1196393718" priority="7" type="highway.service" numLanes="1" speed="13.89"/>
    <edge id="-103615477#3" from="1196393761" to="1196393728" priority="7" type="highway.service" numLanes="1" speed="13.89"/>
    <edge id="-103615478" from="1196393718" to="1196393907" priority="7" type="highway.service" numLanes="1" speed="13.89"/>
    <edge id="-103615481#0" from="1196393743" to="1196393723" priority="7" type="highway.service" numLanes="1" speed="13.89"/>
    <edge id="-103615481#1" from="1196393773" to="1196393743" priority="7" type="highway.service" numLanes="1" speed="13.89"/>
    <edge id="-103615483" from="172667197" to="1196393762" priority="7" type="highway.service" numLanes="1" speed="13.89" shape="3078.97,3050.97 3085.94,3036.99 3092.44,3025.42"/>
    <edge id="-103615484#0" from="1196393930" to="1196393939" priority="7" type="highway.service" numLanes="1" speed="13.89" shape="3127.96,2883.82 3125.72,2879.31 3113.66,2873.44"/>
    <edge id="-103615484#1" from="1196393730" to="1196393930" priority="7" type="highway.service" numLanes="1" speed="13.89" shape="3089.90,2963.50 3109.96,2921.50 3127.96,2883.82"/>
    <edge id="-103615485#0" from="1196393947" to="1196393884" priority="7" type="highway.service" numLanes="1" speed="13.89"/>
    <edge id="-103615485#1" from="1196393892" to="1196393947" priority="7" type="highway.service" numLanes="1" speed="13.89" shape="3236.91,3002.60 3182.78,2976.55 3174.49,2993.64"/>
    <edge id="-103615485#2" from="1196393881" to="1196393892" priority="7" type="highway.service" numLanes="1" speed="13.89" shape="3228.58,3020.53 3231.80,3013.58 3236.91,3002.60"/>
    <edge id="-103615485#3" from="1196393699" to="1196393881" priority="7" type="highway.service" numLanes="1" speed="13.89"/>
    <edge id="-103615486#0" from="1196393865" to="1196393736" priority="7" type="highway.service" numLanes="1" speed="13.89" shape="3033.54,2996.10 3017.04,2987.82 3039.28,2940.65"/>
    <edge id="-103615486#1" from="1196393762" to="1196393865" priority="7" type="highway.service" numLanes="1" speed="13.89" shape="3092.44,3025.42 3062.67,3010.60 3033.54,2996.10"/>
    <edge id="-103615486#2" from="1196393896" to="1196393762" priority="7" type="highway.service" numLanes="1" speed="13.89"/>
    <edge id="-103615486#3" from="1196393822" to="1196393896" priority="7" type="highway.service" numLanes="1" speed="13.89"/>
    <edge id="-103615487" from="1196393885" to="1196393879" priority="7" type="highway.service" numLanes="1" speed="13.89"/>
    <edge id="-103615488" from="1196393684" to="1196394005" priority="7" type="highway.service" numLanes="1" speed="13.89"/>
    <edge id="-103615493#0" from="1196393865" to="1196393808" priority="7" type="highway.service" numLanes="1" speed="13.89" shape="3033.54,2996.10 3027.53,3008.82 3020.84,3021.56"/>
    <edge id="-103615493#1" from="1196393836" to="1196393865" priority="7" type="highway.service" numLanes="1" speed="13.89" shape="3074.20,2955.90 3064.00,2950.96 3056.00,2952.24 3033.54,2996.10"/>
    <edge id="-103615493#2" from="1196393730" to="1196393836" priority="7" type="highway.service" numLanes="1" speed="13.89" shape="3089.90,2963.50 3086.36,2961.79 3074.20,2955.90"/>
    <edge id="-103615493#3" from="1196393884" to="1196393730" priority="7" type="highway.service" numLanes="1" speed="13.89"/>
    <edge id="-103615493#4" from="1196393699" to="1196393884" priority="7" type="highway.service" numLanes="1" speed="13.89"/>
    <edge id="-103615493#5" from="1196393822" to="1196393699" priority="7" type="highway.service" numLanes="1" speed="13.89" shape="3199.56,3078.75 3217.19,3043.86 3224.03,3030.33"/>
    <edge id="-103615493#6" from="1196393742" to="1196393822" priority="7" type="highway.service" numLanes="1" speed="13.89" shape="3187.15,3103.29 3194.26,3089.23 3199.56,3078.75"/>
    <edge id="-103615495" from="1196393881" to="1196393947" priority="7" type="highway.service" numLanes="1" speed="13.89"/>
    <edge id="-103618936" from="1196472338" to="1196472425" priority="7" type="highway.service" numLanes="1" speed="13.89" shape="3298.61,3236.24 3287.51,3258.43 3283.35,3266.59 3280.33,3272.49"/>
    <edge id="-103618937#0" from="1196472334" to="1196472390" priority="7" type="highway.service" numLanes="1" speed="13.89"/>
    <edge id="-103618937#1" from="2523420524" to="1196472334" priority="7" type="highway.service" numLanes="1" speed="13.89" shape="3337.87,3253.00 3347.00,3257.76 3335.40,3280.04 3323.68,3274.15"/>
    <edge id="-103618937#2" from="1196472334" to="2523420524" priority="7" type="highway.service" numLanes="1" speed="13.89" shape="3323.68,3274.15 3335.76,3251.89 3337.87,3253.00"/>
    <edge id="-103618938" from="1196472332" to="1196472340" priority="7" type="highway.service" numLanes="1" speed="13.89"/>
    <edge id="-103618941#0" from="1196472338" to="1196472456" priority="7" type="highway.service" numLanes="1" speed="13.89" shape="3298.61,3236.24 3280.88,3227.61 3268.63,3252.79"/>
    <edge id="-103618941#1" from="1196472390" to="1196472338" priority="7" type="highway.service" numLanes="1" speed="13.89" shape="3307.32,3265.94 3317.88,3245.98 3298.61,3236.24"/>
    <edge id="-103618941#2" from="1196472396" to="1196472390" priority="7" type="highway.service" numLanes="1" speed="13.89"/>
    <edge id="-106136495" from="1222046258" to="1222046481" priority="7" type="highway.service" numLanes="1" speed="13.89" shape="11870.44,4271.67 11865.31,4270.38 11842.08,4264.52"/>
    <edge id="-106136510#0" from="1222046258" to="1222046429" priority="7" type="highway.service" numLanes="1" speed="13.89" shape="11870.44,4271.67 11870.94,4276.92 11873.69,4280.02 11880.11,4282.96"/>
    <edge id="-106136510#1" from="1222046589" to="1222046258" priority="7" type="highway.service" numLanes="1" speed="13.89" shape="11888.45,4281.70 11891.56,4279.90 11893.12,4275.19 11891.63,4270.53 11887.90,4267.53 11880.09,4266.39 11873.95,4267.61 11870.44,4271.67"/>
    <edge id="-106136510#2" from="1222046429" to="1222046589" priority="7" type="highway.service" numLanes="1" speed="13.89" shape="11880.11,4282.96 11887.10,4282.50 11888.45,4281.70"/>
    <edge id="-106486982" from="1225004762" to="1225004885" priority="7" type="highway.service" numLanes="1" speed="13.89" shape="4596.47,1714.84 4588.07,1713.93 4580.61,1713.11 4580.44,1708.85 4579.70,1690.02 4578.48,1658.50 4544.52,1605.62"/>
    <edge id="-106486990#0" from="1225004641" to="1225004547" priority="7" type="highway.service" numLanes="1" speed="13.89" shape="4945.12,1645.35 4950.95,1663.76 4963.86,1678.95"/>
    <edge id="-106486990#1" from="1225004720" to="1225004641" priority="7" type="highway.service" numLanes="1" speed="13.89" shape="4891.37,1555.70 4931.96,1628.56 4940.73,1643.51 4945.12,1645.35"/>
    <edge id="-106486996" from="563509771" to="1112950635" priority="7" type="highway.service" numLanes="1" speed="13.89"/>
    <edge id="-106487001#0" from="1225005001" to="172701550" priority="7" type="highway.service" numLanes="1" speed="13.89" shape="4223.64,1588.64 4224.34,1598.61 4223.24,1604.01"/>
    <edge id="-106487001#1" from="1225004727" to="1225005001" priority="7" type="highway.service" numLanes="1" speed="13.89"/>
    <edge id="-106487001#2" from="1225004881" to="1225004727" priority="7" type="highway.service" numLanes="1" speed="13.89"/>
    <edge id="-106487001#3" from="1225004494" to="1225004881" priority="7" type="highway.service" numLanes="1" speed="13.89"/>
    <edge id="-106487001#4" from="1225004532" to="1225004494" priority="7" type="highway.service" numLanes="1" speed="13.89" shape="4236.71,1542.18 4264.46,1540.05 4262.72,1589.98 4258.38,1589.82"/>
    <edge id="-106487001#5" from="1225005001" to="1225004532" priority="7" type="highway.service" numLanes="1" speed="13.89" shape="4223.64,1588.64 4210.47,1588.19 4212.13,1542.57 4236.71,1542.18"/>
    <edge id="-106487020" from="563509880" to="1112950592" priority="7" type="highway.service" numLanes="1" speed="13.89"/>
    <edge id="-106487021" from="1225004727" to="1225004532" priority="7" type="highway.service" numLanes="1" speed="13.89"/>
    <edge id="-106487028" from="1225004888" to="563509589" priority="7" type="highway.service" numLanes="1" speed="13.89" shape="4151.40,1754.48 4142.49,1771.37 4142.03,1775.10 4142.91,1779.42 4144.21,1781.66 4147.62,1783.77"/>
    <edge id="-106487040" from="1225004745" to="1145480045" priority="7" type="highway.service" numLanes="1" speed="13.89" shape="4465.30,1595.82 4497.57,1562.91 4500.77,1560.28 4505.16,1557.99 4511.76,1557.53 4519.51,1559.47 4525.59,1562.72 4533.39,1573.34"/>
    <edge id="-106487046" from="1225004905" to="1225004641" priority="7" type="highway.service" numLanes="1" speed="13.89" shape="4973.91,1600.54 4981.18,1612.59 4962.97,1637.79 4955.36,1642.26 4945.12,1645.35"/>
    <edge id="-106487053" from="172701586" to="1225004888" priority="7" type="highway.service" numLanes="1" speed="13.89"/>
    <edge id="-106521837" from="1225451363" to="1225451323" priority="7" type="highway.service" numLanes="1" speed="13.89" shape="15261.84,3644.98 15259.76,3650.32 15256.47,3658.71 15254.42,3670.25 15256.20,3686.73 15259.61,3697.38 15262.98,3706.07"/>
    <edge id="-106521838" from="1225451728" to="1225451792" priority="7" type="highway.service" numLanes="1" speed="13.89" shape="15499.06,3655.69 15471.77,3646.03 15469.38,3643.05 15467.65,3639.26 15479.49,3606.11"/>
    <edge id="-106521840" from="1225451240" to="1225451708" priority="7" type="highway.service" numLanes="1" speed="13.89" shape="15184.95,3633.02 15191.87,3634.04 15197.13,3632.86 15204.08,3629.09 15210.18,3623.77"/>
    <edge id="-106521847" from="1225451627" to="1225451719" priority="7" type="highway.service" numLanes="1" speed="13.89"/>
    <edge id="-106521848#0" from="1225451585" to="1225451784" priority="7" type="highway.service" numLanes="1" speed="13.89" shape="15554.28,3591.78 15514.20,3663.70 15506.33,3667.46"/>
    <edge id="-106521848#1" from="1225451384" to="1225451585" priority="7" type="highway.service" numLanes="1" speed="13.89" shape="15601.06,3583.07 15583.68,3575.91 15572.58,3576.06 15565.55,3579.05 15561.65,3583.18 15554.28,3591.78"/>
    <edge id="-106521880#0" from="1225451515" to="1225451728" priority="7" type="highway.service" numLanes="1" speed="13.89"/>
    <edge id="-106521880#1" from="1225451784" to="1225451515" priority="7" type="highway.service" numLanes="1" speed="13.89" shape="15506.33,3667.46 15506.26,3662.73 15505.21,3658.96 15500.19,3656.09"/>
    <edge id="-106521880#2" from="1225451216" to="1225451784" priority="7" type="highway.service" numLanes="1" speed="13.89" shape="15430.82,3653.71 15466.58,3666.77 15477.61,3671.41 15488.96,3675.88 15494.70,3676.00 15500.12,3674.65 15504.27,3671.98 15506.33,3667.46"/>
    <edge id="-106521890" from="1225451159" to="1225451240" priority="7" type="highway.service" numLanes="1" speed="13.89"/>
    <edge id="-106521893#0" from="1225451600" to="1225451627" priority="7" type="highway.service" numLanes="1" speed="13.89"/>
    <edge id="-106521893#1" from="1225451198" to="1225451600" priority="7" type="highway.service" numLanes="1" speed="13.89" shape="15479.95,3603.48 15480.23,3601.89 15479.04,3596.49 15476.65,3593.83 15473.08,3591.97 15469.00,3591.55 15465.21,3592.94 15461.55,3595.63"/>
    <edge id="-106521893#2" from="1225451792" to="1225451198" priority="7" type="highway.service" numLanes="1" speed="13.89"/>
    <edge id="-106521896#0" from="1225451785" to="1225451159" priority="7" type="highway.service" numLanes="1" speed="13.89" shape="15133.31,3609.67 15135.05,3612.30 15138.42,3614.66"/>
    <edge id="-106521896#1" from="1225451708" to="1225451785" priority="7" type="highway.service" numLanes="1" speed="13.89" shape="15210.18,3623.77 15143.41,3596.35 15140.63,3596.30 15136.66,3598.16 15134.13,3601.54 15132.75,3604.93 15133.31,3609.67"/>
    <edge id="-106521896#2" from="1225451363" to="1225451708" priority="7" type="highway.service" numLanes="1" speed="13.89"/>
    <edge id="-106521896#3" from="1225451216" to="1225451363" priority="7" type="highway.service" numLanes="1" speed="13.89" shape="15430.82,3653.71 15428.02,3656.17 15420.75,3659.77 15413.03,3660.90 15404.52,3660.57 15392.65,3657.22 15383.71,3654.42 15375.40,3652.78 15366.74,3651.94 15356.59,3652.05 15339.87,3653.65 15321.65,3656.36 15304.46,3656.80 15288.30,3654.51 15279.36,3651.71 15261.84,3644.98"/>
    <edge id="-106521896#4" from="1225451719" to="1225451216" priority="7" type="highway.service" numLanes="1" speed="13.89" shape="15439.38,3643.10 15437.03,3648.22 15430.82,3653.71"/>
    <edge id="-106604932#0" from="1226371920" to="172664354" priority="7" type="highway.service" numLanes="1" speed="13.89"/>
    <edge id="-106604932#1" from="1418543170" to="1226371920" priority="7" type="highway.service" numLanes="1" speed="13.89" shape="3603.81,2723.39 3608.10,2714.02 3621.40,2694.62 3627.17,2683.86 3634.29,2668.15"/>
    <edge id="-106604957#0" from="172759289" to="172759286" priority="4" type="highway.unclassified" numLanes="1" speed="13.89"/>
    <edge id="-106604957#1" from="1225004547" to="172759289" priority="4" type="highway.unclassified" numLanes="1" speed="13.89"/>
    <edge id="-106604957#10" from="1509479130" to="1162981961" priority="4" type="highway.unclassified" numLanes="1" speed="13.89"/>
    <edge id="-106604957#11" from="172755144" to="1509479130" priority="4" type="highway.unclassified" numLanes="1" speed="13.89" shape="3940.15,2034.05 3943.03,2034.33 3988.81,2043.35 4021.01,2053.98 4026.62,2056.54"/>
    <edge id="-106604957#12" from="172731597" to="172755144" priority="4" type="highway.unclassified" numLanes="1" speed="13.89" shape="3800.34,2040.80 3850.33,2033.03 3879.62,2031.18 3909.50,2031.77 3926.55,2033.64 3940.15,2034.05"/>
    <edge id="-106604957#2" from="1274558719" to="1225004547" priority="4" type="highway.unclassified" numLanes="1" speed="13.89" shape="4751.56,1828.32 4815.63,1794.67 4843.81,1776.15 4859.73,1765.70 4888.81,1743.31 4921.13,1716.55 4963.86,1678.95"/>
    <edge id="-106604957#3" from="172691703" to="1274558719" priority="4" type="highway.unclassified" numLanes="1" speed="13.89"/>
    <edge id="-106604957#4" from="172747879" to="172691703" priority="4" type="highway.unclassified" numLanes="1" speed="13.89" shape="4562.60,1989.46 4597.52,1950.21 4619.53,1924.35 4658.88,1884.74 4676.36,1873.07 4697.94,1859.45 4742.35,1833.15"/>
    <edge id="-106604957#5" from="1145115531" to="172747879" priority="4" type="highway.unclassified" numLanes="1" speed="13.89" shape="4439.27,2075.92 4461.79,2064.24 4499.51,2042.58 4539.89,2014.76 4562.60,1989.46"/>
    <edge id="-106604957#6" from="172691779" to="1145115531" priority="4" type="highway.unclassified" numLanes="1" speed="13.89"/>
    <edge id="-106604957#7" from="1274558761" to="172691779" priority="4" type="highway.unclassified" numLanes="1" speed="13.89"/>
    <edge id="-106604957#8" from="1112950571" to="1274558761" priority="4" type="highway.unclassified" numLanes="1" speed="13.89" shape="4156.86,2115.99 4162.11,2118.39 4201.67,2131.61 4254.33,2139.55 4282.34,2138.33 4312.95,2133.95 4331.01,2128.92"/>