<?xml version="1.0" encoding="UTF-8"?>

<!-- generated on Thu Dec  5 11:01:14 2013 by SUMO netconvert Version 0.17.1
<?xml version="1.0" encoding="UTF-8"?>

<configuration xmlns:xsi="http://www.w3.org/2001/XMLSchema-instance" xsi:noNamespaceSchemaLocation="http://sumo.sf.net/xsd/netconvertConfiguration.xsd">

    <input>
        <sumo-net-file value="campus_to_home.net.xml"/>
    </input>

    <output>
        <plain-output-prefix value="campus_to_home"/>
    </output>

    <processing>
        <no-turnarounds value="true"/>
        <offset.disable-normalization value="true"/>
    </processing>

</configuration>
-->

<nodes version="0.13" xmlns:xsi="http://www.w3.org/2001/XMLSchema-instance" xsi:noNamespaceSchemaLocation="http://sumo.sf.net/xsd/nodes_file.xsd">
    <location netOffset="-672139.48,-3972908.10" convBoundary="0.00,0.00,18302.63,4589.27" origBoundary="-79.092264,35.884905,-78.889711,35.923499" projParameter="+proj=utm +zone=17 +ellps=WGS84 +datum=WGS84 +units=m +no_defs"/>

    <node id="1036407539" x="12266.29" y="2273.28" type="priority"/>
    <node id="1036407614" x="12183.48" y="2123.64" type="priority"/>
    <node id="1036407616" x="12185.70" y="2227.50" type="priority"/>
    <node id="1036454450" x="13228.26" y="474.70" type="priority"/>
    <node id="1036454463" x="12780.47" y="484.09" type="priority"/>
    <node id="1036454466" x="12781.83" y="467.57" type="priority"/>
    <node id="1036454469" x="13215.10" y="500.17" type="priority"/>
    <node id="1036454472" x="11528.14" y="205.67" type="priority"/>
    <node id="1036454474" x="13242.49" y="494.78" type="priority"/>
    <node id="1036454476" x="13224.82" y="505.79" type="priority"/>
    <node id="1036454480" x="12795.42" y="440.33" type="priority"/>
    <node id="1036454482" x="12784.94" y="453.02" type="priority"/>
    <node id="1038141925" x="5428.30" y="2964.11" type="priority"/>
    <node id="1038144461" x="5102.87" y="3094.01" type="priority"/>
    <node id="1038144513" x="5006.78" y="3123.07" type="priority"/>
    <node id="1038186952" x="4191.19" y="2987.09" type="priority"/>
    <node id="1038186955" x="4191.77" y="2916.88" type="dead_end"/>
    <node id="1040589961" x="9542.62" y="2888.02" type="priority"/>
    <node id="1040589965" x="9594.59" y="2892.98" type="priority"/>
    <node id="1040589967" x="9515.40" y="2961.71" type="priority"/>
    <node id="1040590032" x="9799.03" y="3026.35" type="priority"/>
    <node id="1040958198" x="13825.61" y="2694.44" type="priority"/>
    <node id="1040958235" x="13447.18" y="2597.42" type="priority"/>
    <node id="1040958279" x="13761.49" y="2096.65" type="priority"/>
    <node id="1040958325" x="13344.63" y="2313.33" type="priority"/>
    <node id="1040958400" x="13853.84" y="2527.25" type="priority"/>
    <node id="1040958433" x="13845.88" y="2248.90" type="priority"/>
    <node id="1040958463" x="13333.53" y="2503.41" type="priority"/>
    <node id="1040958538" x="13359.48" y="2386.84" type="priority"/>
    <node id="1040958567" x="13484.70" y="2388.70" type="priority"/>
    <node id="1040958633" x="13928.37" y="2495.02" type="priority"/>
    <node id="1040958773" x="13298.76" y="2567.88" type="priority"/>
    <node id="1040958923" x="13503.05" y="2510.18" type="priority"/>
    <node id="1040958955" x="13424.43" y="2170.12" type="priority"/>
    <node id="1040958960" x="13407.03" y="2200.87" type="priority"/>
    <node id="1040959078" x="13809.10" y="2595.41" type="priority"/>
    <node id="1047579035" x="2357.83" y="652.68" type="priority"/>
    <node id="1047579089" x="2337.29" y="602.90" type="priority"/>
    <node id="1047579112" x="2380.96" y="651.13" type="priority"/>
    <node id="1047579191" x="2202.64" y="612.98" type="dead_end"/>
    <node id="1047579215" x="2336.23" y="515.10" type="dead_end"/>
    <node id="1047579234" x="2317.04" y="472.65" type="dead_end"/>
    <node id="1047579240" x="2340.14" y="653.87" type="priority"/>
    <node id="1047579272" x="2354.47" y="601.74" type="priority"/>
    <node id="1047579275" x="2372.17" y="512.88" type="priority"/>
    <node id="1047579300" x="2377.89" y="600.16" type="priority"/>
    <node id="1067832973" x="14167.69" y="2551.54" type="priority"/>
    <node id="1067832976" x="14089.67" y="2416.95" type="priority"/>
    <node id="1067832978" x="14028.22" y="2278.72" type="priority"/>
    <node id="1067832983" x="14109.73" y="2460.25" type="priority"/>
    <node id="1067832992" x="14123.40" y="2402.30" type="priority"/>
    <node id="1067832999" x="14003.51" y="2280.77" type="priority"/>
    <node id="1067833002" x="14229.83" y="2603.68" type="priority"/>
    <node id="1067833006" x="14092.56" y="2415.71" type="priority"/>
    <node id="1067833011" x="14019.65" y="1976.40" type="dead_end"/>
    <node id="1067833012" x="14082.26" y="2304.42" type="priority"/>
    <node id="1067833016" x="14184.06" y="2559.47" type="priority"/>
    <node id="1067833027" x="14106.13" y="2409.89" type="priority"/>
    <node id="1067833032" x="14021.62" y="2279.27" type="priority"/>
    <node id="1067833036" x="14064.50" y="2262.51" type="priority"/>
    <node id="1067833038" x="14215.38" y="2545.66" type="priority"/>
    <node id="1067833050" x="14048.42" y="2319.37" type="priority"/>
    <node id="1067833069" x="14101.44" y="2295.73" type="priority"/>
    <node id="1067833072" x="14084.07" y="2253.75" type="priority"/>
    <node id="1067833121" x="14048.06" y="2269.85" type="priority"/>
    <node id="1067833138" x="14233.41" y="2536.59" type="priority"/>
    <node id="1067833141" x="14064.96" y="2312.26" type="priority"/>
    <node id="1067837742" x="14070.07" y="2515.59" type="priority"/>
    <node id="1067837759" x="13938.45" y="2349.52" type="priority"/>
    <node id="1067837763" x="13968.22" y="2267.91" type="priority"/>
    <node id="1067837774" x="14052.78" y="2470.58" type="priority"/>
    <node id="1067837775" x="13952.61" y="2392.76" type="dead_end"/>
    <node id="1067837777" x="13926.56" y="2329.18" type="dead_end"/>
    <node id="1067837790" x="13982.83" y="2330.99" type="priority"/>
    <node id="1067837798" x="13995.93" y="2478.41" type="priority"/>
    <node id="1067837802" x="13964.82" y="2338.67" type="priority"/>
    <node id="1067837805" x="14039.09" y="2476.16" type="priority"/>
    <node id="1067837810" x="14001.83" y="2331.69" type="priority"/>
    <node id="1067837821" x="14002.30" y="2493.15" type="priority"/>
    <node id="1067837822" x="13946.47" y="2346.22" type="priority"/>
    <node id="1067837823" x="13945.63" y="2366.35" type="priority"/>
    <node id="1067837851" x="14018.81" y="2531.35" type="priority"/>
    <node id="1067837853" x="14033.38" y="2460.59" type="priority"/>
    <node id="1107378782" x="3782.44" y="1850.83" type="priority"/>
    <node id="1107378784" x="3791.98" y="1872.80" type="dead_end"/>
    <node id="1109872893" x="5341.21" y="4142.47" type="priority"/>
    <node id="1109872912" x="5150.61" y="4248.52" type="dead_end"/>
    <node id="1112950501" x="4228.67" y="1820.87" type="priority"/>
    <node id="1112950507" x="4359.24" y="1863.48" type="priority"/>
    <node id="1112950509" x="3991.86" y="1784.28" type="dead_end"/>
    <node id="1112950513" x="3792.25" y="2066.16" type="dead_end"/>
    <node id="1112950514" x="4377.17" y="1865.37" type="priority"/>
    <node id="1112950519" x="3690.39" y="2124.23" type="priority"/>
    <node id="1112950520" x="4351.69" y="1923.06" type="priority"/>
    <node id="1112950521" x="4257.92" y="1841.58" type="priority"/>
    <node id="1112950525" x="4353.18" y="1862.99" type="priority"/>
    <node id="1112950528" x="4371.21" y="1925.88" type="priority"/>
    <node id="1112950530" x="4026.08" y="1712.80" type="dead_end"/>
    <node id="1112950531" x="4314.87" y="1918.61" type="priority"/>
    <node id="1112950532" x="3702.03" y="2120.05" type="priority"/>
    <node id="1112950533" x="4251.08" y="1902.25" type="priority"/>
    <node id="1112950535" x="4234.45" y="1894.70" type="priority"/>
    <node id="1112950536" x="4081.28" y="1959.94" type="priority"/>
    <node id="1112950545" x="4202.25" y="1880.06" type="priority"/>
    <node id="1112950551" x="4340.80" y="1861.60" type="priority"/>
    <node id="1112950553" x="4480.22" y="1946.63" type="dead_end"/>
    <node id="1112950557" x="4081.14" y="1957.42" type="priority"/>
    <node id="1112950558" x="4249.45" y="1922.86" type="priority"/>
    <node id="1112950567" x="4305.48" y="1857.63" type="priority"/>
    <node id="1112950570" x="4287.27" y="1855.59" type="priority"/>
    <node id="1112950571" x="4156.86" y="2115.99" type="priority"/>
    <node id="1112950572" x="4243.73" y="1828.29" type="priority"/>
    <node id="1112950577" x="4122.04" y="1866.72" type="priority"/>
    <node id="1112950578" x="4251.41" y="1832.07" type="priority"/>
    <node id="1112950584" x="4298.53" y="1916.64" type="priority"/>
    <node id="1112950586" x="4205.22" y="2019.33" type="priority"/>
    <node id="1112950587" x="4211.57" y="1812.46" type="priority"/>
    <node id="1112950592" x="4196.30" y="1804.94" type="priority"/>
    <node id="1112950595" x="3678.44" y="2107.24" type="dead_end"/>
    <node id="1112950596" x="3606.47" y="2147.70" type="priority"/>
    <node id="1112950599" x="4184.66" y="1872.06" type="priority"/>
    <node id="1112950601" x="3911.71" y="1832.27" type="priority"/>
    <node id="1112950606" x="4333.55" y="1920.87" type="priority"/>
    <node id="1112950619" x="4274.57" y="1849.70" type="priority"/>
    <node id="1112950621" x="4217.94" y="1887.20" type="priority"/>
    <node id="1112950624" x="4199.69" y="2016.47" type="priority"/>
    <node id="1112950632" x="3811.74" y="2079.89" type="priority"/>
    <node id="1112950635" x="4167.99" y="1864.48" type="priority"/>
    <node id="1112950638" x="4322.63" y="1859.56" type="priority"/>
    <node id="1112950641" x="4108.62" y="1973.55" type="priority"/>
    <node id="1112950650" x="3629.28" y="2146.15" type="priority"/>
    <node id="1112950651" x="4280.99" y="1913.53" type="priority"/>
    <node id="1112956556" x="4209.29" y="2556.79" type="priority"/>
    <node id="1112956564" x="4222.33" y="2570.08" type="priority"/>
    <node id="1112956572" x="4180.46" y="2506.93" type="dead_end"/>
    <node id="1112956573" x="4236.61" y="2520.90" type="priority"/>
    <node id="1112956579" x="4264.42" y="2534.65" type="priority"/>
    <node id="1112956581" x="4248.18" y="2345.50" type="priority"/>
    <node id="1112956583" x="4288.24" y="2325.51" type="dead_end"/>
    <node id="1112973554" x="4150.97" y="2440.50" type="dead_end"/>
    <node id="1112973575" x="4273.89" y="2394.55" type="priority"/>
    <node id="1112981483" x="4083.43" y="2201.37" type="priority"/>
    <node id="1112981486" x="4246.57" y="2335.47" type="priority"/>
    <node id="1112981488" x="4230.86" y="2341.81" type="unregulated"/>
    <node id="1112981489" x="4235.00" y="2351.50" type="unregulated"/>
    <node id="1112981491" x="4095.80" y="2201.88" type="priority"/>
    <node id="1145115409" x="4286.23" y="2403.40" type="priority"/>
    <node id="1145115415" x="4489.11" y="2467.14" type="priority"/>
    <node id="1145115416" x="4503.11" y="2250.27" type="priority"/>
    <node id="1145115435" x="4517.39" y="2166.53" type="priority"/>
    <node id="1145115447" x="4375.87" y="2444.45" type="priority"/>
    <node id="1145115456" x="4515.52" y="2240.93" type="priority"/>
    <node id="1145115461" x="4468.96" y="2245.17" type="dead_end"/>
    <node id="1145115471" x="4466.60" y="2272.21" type="priority"/>
    <node id="1145115531" x="4439.27" y="2075.92" type="priority"/>
    <node id="1145449496" x="4448.24" y="2668.59" type="priority"/>
    <node id="1145449552" x="4451.28" y="2654.21" type="priority"/>
    <node id="1145449571" x="4556.13" y="2729.26" type="priority"/>
    <node id="1145449701" x="4562.62" y="2717.25" type="priority"/>
    <node id="1145449870" x="4534.00" y="2781.32" type="priority"/>
    <node id="1145449883" x="4571.50" y="2724.19" type="priority"/>
    <node id="1145449926" x="4550.41" y="2487.42" type="priority"/>
    <node id="1145449983" x="4508.52" y="2728.61" type="priority"/>
    <node id="1145450007" x="4588.43" y="2719.66" type="priority"/>
    <node id="1145450012" x="4560.03" y="2732.85" type="priority"/>
    <node id="1145479963" x="4717.76" y="1797.81" type="priority"/>
    <node id="1145479975" x="4883.65" y="1638.45" type="priority"/>
    <node id="1145479996" x="4503.11" y="1585.76" type="priority"/>
    <node id="1145480007" x="4557.80" y="1606.26" type="priority"/>
    <node id="1145480008" x="4596.60" y="1693.60" type="priority"/>
    <node id="1145480010" x="4899.86" y="1680.16" type="priority"/>
    <node id="1145480029" x="4713.22" y="1793.07" type="priority"/>
    <node id="1145480044" x="4543.91" y="1586.57" type="priority"/>
    <node id="1145480045" x="4533.39" y="1573.34" type="priority"/>
    <node id="1145480055" x="4694.83" y="1778.35" type="priority"/>
    <node id="1147996369" x="13545.28" y="2013.19" type="priority"/>
    <node id="1147996373" x="13313.32" y="2242.03" type="priority"/>
    <node id="1147996392" x="13303.08" y="2247.77" type="priority"/>
    <node id="1147996399" x="12256.47" y="2020.24" type="priority"/>
    <node id="1147996401" x="13528.99" y="2015.98" type="priority"/>
    <node id="1147996405" x="12572.66" y="2193.51" type="priority"/>
    <node id="1147996411" x="12939.33" y="2279.98" type="priority"/>
    <node id="1148010174" x="7353.75" y="1641.34" type="priority"/>
    <node id="1148010189" x="7186.94" y="1141.76" type="priority"/>
    <node id="1148010206" x="7285.69" y="1359.47" type="dead_end"/>
    <node id="1148010207" x="7254.87" y="1957.09" type="priority"/>
    <node id="1148010224" x="7105.50" y="1836.99" type="priority"/>
    <node id="1148010228" x="7285.00" y="1440.72" type="priority"/>
    <node id="1148010267" x="7259.90" y="1839.65" type="priority"/>
    <node id="1148010272" x="7181.22" y="1146.04" type="priority"/>
    <node id="1148010273" x="7342.74" y="1841.77" type="priority"/>
    <node id="1148010276" x="7071.01" y="1271.68" type="priority"/>
    <node id="1148010312" x="7264.65" y="1477.90" type="priority"/>
    <node id="1148010320" x="7285.46" y="1386.72" type="priority"/>
    <node id="1148010323" x="7258.75" y="1909.42" type="priority"/>
    <node id="1148015827" x="4598.39" y="1752.23" type="priority"/>
    <node id="1148030549" x="254.11" y="1818.78" type="priority"/>
    <node id="1148030593" x="187.77" y="1691.58" type="dead_end"/>
    <node id="1148030598" x="217.40" y="1786.68" type="priority"/>
    <node id="1148030600" x="233.15" y="1800.45" type="priority"/>
    <node id="1152815022" x="14047.63" y="4401.43" type="priority"/>
    <node id="1152815081" x="14072.14" y="4389.64" type="priority"/>
    <node id="1152915184" x="13777.23" y="1994.06" type="priority"/>
    <node id="1152915186" x="14074.12" y="2781.08" type="traffic_light" tl="1152915186"/>
    <node id="1152915192" x="14046.23" y="2713.56" type="priority"/>
    <node id="1152915201" x="13754.57" y="1950.26" type="priority"/>
    <node id="1152915209" x="14181.46" y="3026.10" type="priority"/>
    <node id="1152915212" x="14887.64" y="4525.33" type="priority"/>
    <node id="1152915215" x="13996.11" y="2591.21" type="traffic_light" tl="joinedS_0"/>
    <node id="1152915217" x="13988.11" y="2573.04" type="traffic_light"/>
    <node id="1152915223" x="14729.73" y="4241.79" type="traffic_light" tl="joinedS_1"/>
    <node id="1152915228" x="14898.70" y="4518.53" type="priority"/>
    <node id="1152915236" x="14895.93" y="4538.63" type="priority"/>
    <node id="1152915239" x="14569.62" y="3952.36" type="priority"/>
    <node id="1152915247" x="14906.04" y="4531.77" type="priority"/>
    <node id="1152915252" x="14724.48" y="4232.02" type="traffic_light" tl="joinedS_1"/>
    <node id="1162981954" x="4179.91" y="2069.92" type="priority"/>
    <node id="1162981958" x="4048.35" y="2034.75" type="dead_end"/>
    <node id="1162981960" x="4077.51" y="1966.91" type="dead_end"/>
    <node id="1162981961" x="4036.09" y="2060.86" type="priority"/>
    <node id="1184078787" x="3316.24" y="1744.23" type="priority"/>
    <node id="1184078788" x="3349.74" y="1726.20" type="priority"/>
    <node id="1184078792" x="3245.03" y="1835.84" type="priority"/>
    <node id="1184078798" x="3293.59" y="1942.77" type="dead_end"/>
    <node id="1184078812" x="3319.68" y="1930.55" type="priority"/>
    <node id="1184078814" x="3191.76" y="1745.31" type="priority"/>
    <node id="1184078818" x="3244.20" y="1715.39" type="priority"/>
    <node id="1184078848" x="3305.06" y="1768.07" type="priority"/>
    <node id="1184078850" x="3355.82" y="1687.09" type="dead_end"/>
    <node id="1184078859" x="3392.05" y="1939.00" type="priority"/>
    <node id="1184078867" x="3383.20" y="1901.60" type="dead_end"/>
    <node id="1184078876" x="3357.14" y="1794.48" type="priority"/>
    <node id="1184078882" x="3307.63" y="2001.55" type="priority"/>
    <node id="1184078889" x="3334.76" y="1842.20" type="priority"/>
    <node id="1184078897" x="3368.23" y="2105.52" type="dead_end"/>
    <node id="1184078928" x="3398.26" y="1939.63" type="priority"/>
    <node id="1184078934" x="3280.40" y="1980.60" type="dead_end"/>
    <node id="1184078936" x="3229.63" y="1752.49" type="priority"/>
    <node id="1184078940" x="3235.33" y="1698.23" type="priority"/>
    <node id="1184078962" x="3332.25" y="1731.48" type="priority"/>
    <node id="1184078976" x="3317.08" y="1809.16" type="priority"/>
    <node id="1184078980" x="3306.08" y="1813.19" type="priority"/>
    <node id="1184078996" x="3211.74" y="1749.09" type="priority"/>
    <node id="1184079002" x="3394.43" y="1952.93" type="priority"/>
    <node id="1184079019" x="3325.85" y="1825.55" type="priority"/>
    <node id="1184079023" x="3248.56" y="1707.96" type="priority"/>
    <node id="1184079024" x="3252.33" y="1851.12" type="priority"/>
    <node id="1184079035" x="3335.44" y="1686.78" type="priority"/>
    <node id="1184079055" x="3266.70" y="1881.68" type="priority"/>
    <node id="1184079097" x="3339.51" y="1800.94" type="priority"/>
    <node id="1184079131" x="3290.20" y="1927.06" type="priority"/>
    <node id="1184079165" x="3320.40" y="1807.94" type="priority"/>
    <node id="1184079167" x="3320.76" y="1943.55" type="priority"/>
    <node id="1194029624" x="3647.58" y="2982.59" type="priority"/>
    <node id="1194029637" x="3502.71" y="2922.39" type="priority"/>
    <node id="1194029647" x="3907.25" y="3113.96" type="dead_end"/>
    <node id="1194029648" x="3468.12" y="2989.50" type="dead_end"/>
    <node id="1194029663" x="3471.45" y="2825.09" type="priority"/>
    <node id="1194029677" x="3636.49" y="2891.78" type="priority"/>
    <node id="1194029679" x="3642.83" y="2992.18" type="priority"/>
    <node id="1194029701" x="3535.37" y="2856.49" type="priority"/>
    <node id="1194029704" x="3695.18" y="2937.62" type="dead_end"/>
    <node id="1194029715" x="3439.08" y="2890.64" type="priority"/>
    <node id="1194029734" x="3583.39" y="2876.13" type="dead_end"/>
    <node id="1194029736" x="3501.65" y="2998.08" type="priority"/>
    <node id="1194029747" x="3465.93" y="2822.38" type="priority"/>
    <node id="1194029753" x="3675.54" y="2928.29" type="priority"/>
    <node id="1196393679" x="3152.37" y="2873.49" type="priority"/>
    <node id="1196393684" x="3001.83" y="2927.78" type="priority"/>
    <node id="1196393695" x="3268.55" y="2934.82" type="priority"/>
    <node id="1196393699" x="3224.03" y="3030.33" type="priority"/>
    <node id="1196393701" x="3155.52" y="2772.82" type="dead_end"/>
    <node id="1196393718" x="3242.88" y="2883.29" type="priority"/>
    <node id="1196393723" x="3137.24" y="2766.40" type="dead_end"/>
    <node id="1196393728" x="3231.34" y="2877.69" type="priority"/>
    <node id="1196393729" x="3114.55" y="3068.17" type="priority"/>
    <node id="1196393730" x="3089.90" y="2963.50" type="priority"/>
    <node id="1196393734" x="3245.36" y="2984.50" type="priority"/>
    <node id="1196393736" x="3039.28" y="2940.65" type="dead_end"/>
    <node id="1196393742" x="3187.15" y="3103.29" type="priority"/>
    <node id="1196393743" x="3126.55" y="2789.31" type="priority"/>
    <node id="1196393751" x="3191.41" y="2790.57" type="dead_end"/>
    <node id="1196393755" x="3116.65" y="2759.78" type="dead_end"/>
    <node id="1196393761" x="3221.66" y="2872.99" type="dead_end"/>
    <node id="1196393762" x="3092.44" y="3025.42" type="priority"/>
    <node id="1196393772" x="2991.07" y="3006.48" type="priority"/>
    <node id="1196393773" x="3105.64" y="2832.59" type="dead_end"/>
    <node id="1196393806" x="2969.53" y="2995.59" type="priority"/>
    <node id="1196393808" x="3020.84" y="3021.56" type="priority"/>
    <node id="1196393821" x="3243.37" y="2852.64" type="dead_end"/>
    <node id="1196393822" x="3199.56" y="3078.75" type="priority"/>
    <node id="1196393836" x="3074.20" y="2955.90" type="priority"/>
    <node id="1196393840" x="3206.47" y="2902.23" type="priority"/>
    <node id="1196393863" x="3179.18" y="2815.57" type="priority"/>
    <node id="1196393865" x="3033.54" y="2996.10" type="priority"/>
    <node id="1196393879" x="3161.63" y="2806.80" type="priority"/>
    <node id="1196393881" x="3228.58" y="3020.53" type="priority"/>
    <node id="1196393884" x="3170.24" y="3002.42" type="priority"/>
    <node id="1196393885" x="3173.90" y="2781.56" type="dead_end"/>
    <node id="1196393892" x="3236.91" y="3002.60" type="priority"/>
    <node id="1196393896" x="3127.52" y="3042.88" type="priority"/>
    <node id="1196393907" x="3234.43" y="2900.40" type="priority"/>
    <node id="1196393928" x="3144.01" y="2797.99" type="priority"/>
    <node id="1196393930" x="3127.96" y="2883.82" type="priority"/>
    <node id="1196393936" x="3252.52" y="2969.15" type="priority"/>
    <node id="1196393939" x="3113.66" y="2873.44" type="priority"/>
    <node id="1196393943" x="3275.56" y="2920.47" type="priority"/>
    <node id="1196393947" x="3174.49" y="2993.64" type="priority"/>
    <node id="1196394005" x="2990.96" y="2922.78" type="priority"/>
    <node id="1196472332" x="3325.29" y="3235.33" type="dead_end"/>
    <node id="1196472334" x="3323.68" y="3274.15" type="priority"/>
    <node id="1196472338" x="3298.61" y="3236.24" type="priority"/>
    <node id="1196472340" x="3263.53" y="3205.35" type="priority"/>
    <node id="1196472390" x="3307.32" y="3265.94" type="priority"/>
    <node id="1196472396" x="3303.35" y="3273.45" type="dead_end"/>
    <node id="1196472398" x="3605.60" y="3309.64" type="priority"/>
    <node id="1196472425" x="3280.33" y="3272.49" type="priority"/>
    <node id="1196472444" x="3601.22" y="3365.41" type="priority"/>
    <node id="1196472456" x="3268.63" y="3252.79" type="dead_end"/>
    <node id="1196906134" x="15779.15" y="344.29" type="priority"/>
    <node id="1212382475" x="1850.61" y="4214.19" type="priority"/>
    <node id="1213274034" x="13764.11" y="1997.17" type="priority"/>
    <node id="1213274036" x="12000.06" y="1979.05" type="priority"/>
    <node id="1213274039" x="13767.59" y="2014.29" type="priority"/>
    <node id="1217706641" x="4140.76" y="2688.98" type="priority"/>
    <node id="1217706654" x="4142.91" y="2713.42" type="dead_end"/>
    <node id="1217794110" x="1642.05" y="3536.64" type="priority"/>
    <node id="1222046258" x="11870.44" y="4271.67" type="priority"/>
    <node id="1222046429" x="11880.11" y="4282.96" type="priority"/>
    <node id="1222046481" x="11842.08" y="4264.52" type="priority"/>
    <node id="1222046589" x="11888.45" y="4281.70" type="priority"/>
    <node id="1224298867" x="9948.38" y="3733.11" type="priority"/>
    <node id="1224791380" x="5360.73" y="1899.36" type="priority"/>
    <node id="1224791390" x="5469.30" y="1856.22" type="priority"/>
    <node id="1224791416" x="5378.71" y="1891.50" type="traffic_light"/>
    <node id="1224791583" x="5362.09" y="1579.57" type="priority"/>
    <node id="1224791596" x="5393.18" y="1885.29" type="traffic_light" tl="joinedS_2"/>
    <node id="1224935865" x="3538.50" y="2341.72" type="priority"/>
    <node id="1224935876" x="3244.07" y="2655.91" type="dead_end"/>
    <node id="1225004494" x="4258.38" y="1589.82" type="priority"/>
    <node id="1225004502" x="4284.95" y="1674.93" type="priority"/>
    <node id="1225004532" x="4236.71" y="1542.18" type="priority"/>
    <node id="1225004547" x="4963.86" y="1678.95" type="priority"/>
    <node id="1225004565" x="4347.26" y="1807.53" type="priority"/>
    <node id="1225004632" x="4902.26" y="1531.46" type="priority"/>
    <node id="1225004641" x="4945.12" y="1645.35" type="priority"/>
    <node id="1225004687" x="4596.40" y="1728.96" type="priority"/>
    <node id="1225004720" x="4891.37" y="1555.70" type="priority"/>
    <node id="1225004727" x="4235.61" y="1589.04" type="priority"/>
    <node id="1225004729" x="4186.32" y="1764.63" type="priority"/>
    <node id="1225004745" x="4465.30" y="1595.82" type="dead_end"/>
    <node id="1225004762" x="4596.47" y="1714.84" type="priority"/>
    <node id="1225004769" x="4596.33" y="1743.73" type="priority"/>
    <node id="1225004783" x="4256.19" y="1610.54" type="priority"/>
    <node id="1225004881" x="4239.36" y="1589.17" type="priority"/>
    <node id="1225004885" x="4544.52" y="1605.62" type="priority"/>
    <node id="1225004888" x="4151.40" y="1754.48" type="priority"/>
    <node id="1225004905" x="4973.91" y="1600.54" type="dead_end"/>
    <node id="1225004911" x="4374.34" y="1811.41" type="priority"/>
    <node id="1225005001" x="4223.64" y="1588.64" type="priority"/>
    <node id="1225132336" x="3625.09" y="2489.30" type="priority"/>
    <node id="1225132340" x="3591.89" y="2650.46" type="priority"/>
    <node id="1225132360" x="3570.50" y="2487.15" type="priority"/>
    <node id="1225132386" x="3411.63" y="2213.30" type="priority"/>
    <node id="1225132435" x="3609.73" y="2191.06" type="priority"/>
    <node id="1225132498" x="3412.71" y="2193.57" type="priority"/>
    <node id="1225132503" x="3593.25" y="2227.86" type="priority"/>
    <node id="1225451159" x="15138.42" y="3614.66" type="priority"/>
    <node id="1225451198" x="15479.95" y="3603.48" type="priority"/>
    <node id="1225451216" x="15430.82" y="3653.71" type="priority"/>
    <node id="1225451240" x="15184.95" y="3633.02" type="priority"/>
    <node id="1225451323" x="15262.98" y="3706.07" type="priority"/>
    <node id="1225451363" x="15261.84" y="3644.98" type="priority"/>
    <node id="1225451384" x="15601.06" y="3583.07" type="dead_end"/>
    <node id="1225451515" x="15500.19" y="3656.09" type="priority"/>
    <node id="1225451585" x="15554.28" y="3591.78" type="priority"/>
    <node id="1225451600" x="15461.55" y="3595.63" type="priority"/>
    <node id="1225451627" x="15460.11" y="3598.21" type="priority"/>
    <node id="1225451708" x="15210.18" y="3623.77" type="priority"/>
    <node id="1225451719" x="15439.38" y="3643.10" type="priority"/>
    <node id="1225451728" x="15499.06" y="3655.69" type="priority"/>
    <node id="1225451784" x="15506.33" y="3667.46" type="priority"/>
    <node id="1225451785" x="15133.31" y="3609.67" type="priority"/>
    <node id="1225451792" x="15479.49" y="3606.11" type="priority"/>
    <node id="1226371818" x="3564.34" y="2034.23" type="priority"/>
    <node id="1226371819" x="3685.49" y="1806.15" type="priority"/>
    <node id="1226371822" x="3657.53" y="1897.93" type="unregulated"/>
    <node id="1226371831" x="3652.03" y="2181.47" type="priority"/>
    <node id="1226371837" x="3651.66" y="1884.02" type="priority"/>
    <node id="1226371840" x="3754.85" y="1886.68" type="priority"/>
    <node id="1226371842" x="3554.76" y="1973.37" type="unregulated"/>
    <node id="1226371853" x="3774.54" y="1947.44" type="priority"/>
    <node id="1226371854" x="3549.45" y="1959.21" type="unregulated"/>
    <node id="1226371861" x="3719.18" y="2206.84" type="priority"/>
    <node id="1226371868" x="3550.97" y="1935.16" type="unregulated"/>
    <node id="1226371876" x="3657.16" y="2179.77" type="priority"/>
    <node id="1226371878" x="3713.55" y="1743.56" type="priority"/>
    <node id="1226371879" x="3938.17" y="1863.58" type="priority"/>
    <node id="1226371895" x="3575.99" y="2029.92" type="unregulated"/>
    <node id="1226371904" x="3542.70" y="1977.18" type="priority"/>
    <node id="1226371911" x="3537.39" y="1963.28" type="priority"/>
    <node id="1226371920" x="3634.29" y="2668.15" type="priority"/>
    <node id="1226371926" x="3741.68" y="1945.43" type="unregulated"/>
    <node id="1226371937" x="3745.92" y="1957.10" type="unregulated"/>
    <node id="1226371944" x="3704.57" y="2175.20" type="priority"/>
    <node id="1226371952" x="3546.72" y="1925.31" type="priority"/>
    <node id="1226729317" x="4905.53" y="2565.51" type="priority"/>
    <node id="1226729326" x="4818.30" y="2782.93" type="priority"/>
    <node id="1226729401" x="4933.78" y="2532.63" type="priority"/>
    <node id="1226729424" x="4909.02" y="2566.33" type="priority"/>
    <node id="1226729430" x="4872.86" y="2484.58" type="dead_end"/>
    <node id="1227852150" x="7629.12" y="685.29" type="dead_end"/>
    <node id="1228552344" x="13509.51" y="2440.73" type="priority"/>
    <node id="1228552391" x="12820.04" y="2255.51" type="priority"/>
    <node id="1228552395" x="13351.90" y="2443.63" type="priority"/>
    <node id="1228552405" x="12753.71" y="2226.16" type="priority"/>
    <node id="1228552441" x="12816.16" y="2271.40" type="priority"/>
    <node id="1228552647" x="12751.40" y="2233.33" type="priority"/>
    <node id="1228552659" x="12938.47" y="2272.28" type="priority"/>
    <node id="1228552669" x="14287.20" y="3281.96" type="traffic_light" tl="1228552669"/>
    <node id="1228702937" x="12779.09" y="500.90" type="dead_end"/>
    <node id="1228702940" x="12761.19" y="499.39" type="dead_end"/>