<?xml version="1.0" encoding="UTF-8"?>

<!-- generated on Fri Apr  4 12:46:13 2014 by SUMO netconvert Version 0.17.1
<?xml version="1.0" encoding="UTF-8"?>

<configuration xmlns:xsi="http://www.w3.org/2001/XMLSchema-instance" xsi:noNamespaceSchemaLocation="http://sumo.sf.net/xsd/netconvertConfiguration.xsd">

    <input>
        <sumo-net-file value="large_san_fran.net.xml"/>
    </input>

    <output>
        <plain-output-prefix value="large_san_fran"/>
    </output>

    <processing>
        <no-turnarounds value="true"/>
        <offset.disable-normalization value="true"/>
    </processing>

</configuration>
-->

<nodes version="0.13" xmlns:xsi="http://www.w3.org/2001/XMLSchema-instance" xsi:noNamespaceSchemaLocation="http://sumo.sf.net/xsd/nodes_file.xsd">
    <location netOffset="-536335.01,-4165009.77" convBoundary="0.00,0.00,35192.40,26140.48" origBoundary="-122.587141,37.631106,-122.188602,37.865099" projParameter="+proj=utm +zone=10 +ellps=WGS84 +datum=WGS84 +units=m +no_defs"/>

    <node id="1003239892" x="28223.73" y="22180.24" type="priority"/>
    <node id="1003261749" x="28632.54" y="23559.42" type="priority"/>
    <node id="1003261755" x="28612.83" y="23365.60" type="priority"/>
    <node id="1003263221" x="28620.89" y="23507.87" type="traffic_light" tl="joinedS_0"/>
    <node id="1003265610" x="28348.86" y="23813.48" type="dead_end"/>
    <node id="1003268765" x="28716.37" y="23094.95" type="priority"/>
    <node id="1003268767" x="28669.42" y="23093.91" type="priority"/>
    <node id="1003269690" x="28861.79" y="21475.19" type="priority"/>
    <node id="1003269813" x="28868.86" y="21594.02" type="priority"/>
    <node id="1003269875" x="28833.25" y="21608.85" type="priority"/>
    <node id="1003270519" x="29000.47" y="21784.16" type="priority"/>
    <node id="1003271909" x="29462.00" y="22735.84" type="priority"/>
    <node id="1003272873" x="29548.20" y="22912.37" type="traffic_light" tl="joinedS_2"/>
    <node id="1003273359" x="29512.40" y="22839.30" type="priority"/>
    <node id="1003274384" x="29449.81" y="22710.71" type="traffic_light" tl="joinedS_1"/>
    <node id="1003274388" x="29443.99" y="22698.71" type="traffic_light" tl="joinedS_1"/>
    <node id="1003274390" x="29396.53" y="22600.79" type="priority"/>
    <node id="1003275166" x="29376.45" y="22559.37" type="priority"/>
    <node id="1003275168" x="29272.30" y="22344.53" type="traffic_light" tl="joinedS_3"/>
    <node id="1003275169" x="29217.54" y="22231.59" type="priority"/>
    <node id="1003275170" x="29199.80" y="22195.00" type="priority"/>
    <node id="1003275428" x="29122.50" y="22035.67" type="traffic_light" tl="joinedS_4"/>
    <node id="1003275430" x="29074.87" y="21937.51" type="traffic_light" tl="joinedS_5"/>
    <node id="1003276429" x="29070.65" y="21928.80" type="traffic_light" tl="joinedS_5"/>
    <node id="1003276431" x="28907.32" y="21593.09" type="traffic_light" tl="joinedS_6"/>
    <node id="1003276433" x="28900.52" y="21580.71" type="traffic_light" tl="joinedS_6"/>
    <node id="100649295" x="19572.60" y="21242.64" type="priority"/>
    <node id="100649296" x="19714.29" y="21320.62" type="priority"/>
    <node id="100649298" x="19663.08" y="21117.20" type="priority"/>
    <node id="100649301" x="19361.14" y="21138.91" type="priority"/>
    <node id="100650693" x="19299.36" y="21473.90" type="priority"/>
    <node id="100652127" x="18714.95" y="21446.43" type="priority"/>
    <node id="100652132" x="18665.70" y="21420.45" type="priority"/>
    <node id="100656597" x="18494.12" y="21985.11" type="priority"/>
    <node id="100656610" x="18514.21" y="21892.89" type="priority"/>
    <node id="100657546" x="18856.96" y="22353.32" type="dead_end"/>
    <node id="100657551" x="19087.22" y="22138.93" type="priority"/>
    <node id="100657564" x="19004.18" y="22094.60" type="priority"/>
    <node id="100660127" x="19339.60" y="22020.19" type="dead_end"/>
    <node id="1012942358" x="8263.99" y="11180.64" type="priority"/>
    <node id="1012942397" x="9037.70" y="9212.29" type="priority"/>
    <node id="1014306684" x="9715.47" y="14915.95" type="priority"/>
    <node id="1014306694" x="9716.04" y="14905.92" type="priority"/>
    <node id="101509694#1-AddedOnRampNode" x="28764.50" y="21346.98" type="priority"/>
    <node id="1016079979" x="15346.87" y="18434.88" type="priority"/>
    <node id="101634057" x="19443.88" y="19801.05" type="priority"/>
    <node id="101634074" x="19337.57" y="19802.78" type="priority"/>
    <node id="101643699" x="19555.00" y="19936.56" type="priority"/>
    <node id="1018617264" x="14408.61" y="15876.97" type="priority"/>
    <node id="1021374476" x="29619.76" y="25532.44" type="dead_end"/>
    <node id="1024125215" x="16785.10" y="18549.15" type="priority"/>
    <node id="1024125217" x="16799.48" y="18575.76" type="priority"/>
    <node id="1026928270" x="14569.12" y="19241.72" type="dead_end"/>
    <node id="1026928283" x="14745.26" y="19524.00" type="priority"/>
    <node id="1026928301" x="14580.08" y="19220.23" type="dead_end"/>
    <node id="1026928393" x="14727.29" y="19628.13" type="priority"/>
    <node id="1027575143" x="17527.67" y="16946.64" type="traffic_light" tl="1027575143"/>
    <node id="1028661012" x="15427.06" y="16361.42" type="priority"/>
    <node id="1030522453" x="29366.40" y="25280.54" type="priority"/>
    <node id="103098341" x="29789.36" y="19159.85" type="priority"/>
    <node id="103098350" x="29777.49" y="19223.96" type="priority"/>
    <node id="103098392" x="29901.56" y="19689.55" type="priority"/>
    <node id="103098530" x="29095.98" y="19620.35" type="priority"/>
    <node id="103098555" x="28955.22" y="19475.56" type="priority"/>
    <node id="103098567" x="28862.30" y="19638.95" type="priority"/>
    <node id="103098571" x="28904.86" y="19722.53" type="priority"/>
    <node id="1032758359" x="10232.19" y="11534.33" type="priority"/>
    <node id="1032759884" x="10723.82" y="12190.91" type="priority"/>
    <node id="1037753776" x="10228.66" y="16391.48" type="priority"/>
    <node id="1037753794" x="10244.59" y="16242.39" type="dead_end"/>
    <node id="1037911870" x="17504.49" y="14706.43" type="priority"/>
    <node id="1037911884" x="11105.76" y="8288.06" type="priority"/>
    <node id="1037911887" x="10948.85" y="7756.29" type="priority"/>
    <node id="1037911891" x="11160.28" y="8318.23" type="priority"/>
    <node id="1037911897" x="11176.89" y="8330.38" type="priority"/>
    <node id="1037911898" x="10878.33" y="7397.31" type="traffic_light" tl="joinedS_10"/>
    <node id="1037911899" x="10837.34" y="7038.40" type="priority"/>
    <node id="1037911900" x="10933.07" y="7680.49" type="priority"/>
    <node id="1037911906" x="17510.54" y="14578.92" type="priority"/>
    <node id="1037911907" x="10854.16" y="7187.37" type="priority"/>
    <node id="1037911909" x="10387.78" y="7390.75" type="priority"/>
    <node id="1037911915" x="10822.97" y="6919.80" type="priority"/>
    <node id="1037911916" x="11002.06" y="8007.64" type="priority"/>
    <node id="1037911917" x="10789.78" y="6721.43" type="priority"/>
    <node id="1037911919" x="10989.09" y="7392.31" type="priority"/>
    <node id="1037911929" x="11025.74" y="8117.28" type="priority"/>
    <node id="1037911935" x="11051.44" y="8205.50" type="priority"/>
    <node id="1037911938" x="10965.23" y="7834.25" type="priority"/>
    <node id="1037911939" x="10957.88" y="7799.39" type="priority"/>
    <node id="1037911942" x="11056.14" y="8214.61" type="priority"/>
    <node id="1037911946" x="10916.14" y="7597.48" type="priority"/>
    <node id="1037911948" x="10844.83" y="7108.79" type="priority"/>
    <node id="1037917924" x="10285.01" y="8791.07" type="priority"/>
    <node id="1037998899" x="27603.65" y="19048.48" type="priority"/>
    <node id="1037998920" x="27613.47" y="19066.70" type="priority"/>
    <node id="1037998926" x="27587.55" y="19040.87" type="priority"/>
    <node id="1037998928" x="27546.06" y="19054.26" type="priority"/>
    <node id="1040070128" x="17761.37" y="11572.26" type="priority"/>
    <node id="1040877951" x="9972.04" y="9714.64" type="priority"/>
    <node id="1040877986" x="10004.48" y="9727.63" type="priority"/>
    <node id="1040878087" x="9970.18" y="9771.93" type="priority"/>
    <node id="1040992780" x="9835.78" y="10615.42" type="priority"/>
    <node id="1040992787" x="9897.65" y="10548.05" type="priority"/>
    <node id="1040992800" x="9855.03" y="10711.11" type="priority"/>
    <node id="1040992828" x="9896.98" y="10531.13" type="priority"/>
    <node id="1040992877" x="9870.10" y="10673.43" type="priority"/>
    <node id="1040992887" x="9834.63" y="10582.79" type="priority"/>
    <node id="1040992890" x="9845.15" y="10495.05" type="priority"/>
    <node id="1040992915" x="9887.23" y="10672.65" type="priority"/>
    <node id="1040992917" x="9838.33" y="10508.01" type="priority"/>
    <node id="1040992950" x="9898.27" y="10563.80" type="priority"/>
    <node id="1040992952" x="9898.93" y="10580.77" type="priority"/>
    <node id="1040992956" x="9833.01" y="10533.33" type="priority"/>
    <node id="1040992961" x="9872.16" y="10725.74" type="priority"/>
    <node id="1040992966" x="9834.02" y="10565.92" type="priority"/>
    <node id="1040992982" x="9899.57" y="10596.98" type="priority"/>
    <node id="1040992988" x="9835.20" y="10599.26" type="priority"/>
    <node id="1040992993" x="9890.29" y="10751.85" type="priority"/>
    <node id="1040992998" x="9833.48" y="10550.39" type="priority"/>
    <node id="1040993021" x="9874.84" y="10515.42" type="priority"/>
    <node id="1040993024" x="9875.90" y="10752.26" type="priority"/>
    <node id="1041008450" x="9876.70" y="10772.18" type="priority"/>
    <node id="1041008458" x="9868.53" y="10737.43" type="priority"/>
    <node id="1041008463" x="9862.34" y="10830.84" type="priority"/>
    <node id="1041008464" x="9878.77" y="10830.22" type="priority"/>
    <node id="1041008465" x="9842.41" y="10499.44" type="priority"/>
    <node id="1041008478" x="9833.31" y="10545.66" type="priority"/>
    <node id="1041008484" x="9809.72" y="10815.25" type="priority"/>
    <node id="1041008485" x="9877.68" y="10796.33" type="priority"/>
    <node id="1041008486" x="9875.97" y="10754.05" type="priority"/>
    <node id="1041008489" x="9833.92" y="10562.85" type="priority"/>
    <node id="1041008490" x="9808.25" y="10774.80" type="priority"/>
    <node id="1041008492" x="9809.13" y="10799.13" type="priority"/>
    <node id="1041008495" x="9810.36" y="10832.80" type="priority"/>
    <node id="1041008496" x="9878.34" y="10812.65" type="priority"/>
    <node id="1041008497" x="9787.21" y="10531.30" type="priority"/>
    <node id="1041008498" x="9833.05" y="10529.83" type="priority"/>
    <node id="1041008500" x="9772.72" y="10547.73" type="priority"/>
    <node id="1041008506" x="9836.53" y="10512.64" type="priority"/>
    <node id="1041008513" x="9807.59" y="10756.76" type="priority"/>
    <node id="1041008519" x="9807.00" y="10740.39" type="priority"/>
    <node id="1041015130" x="9840.00" y="10936.92" type="priority"/>
    <node id="1041015132" x="9850.03" y="10862.81" type="priority"/>
    <node id="1041015136" x="9850.67" y="10954.42" type="priority"/>
    <node id="1041015137" x="9901.95" y="10884.39" type="priority"/>
    <node id="1041015141" x="9899.91" y="10918.59" type="priority"/>
    <node id="1041015143" x="9838.75" y="10902.54" type="priority"/>
    <node id="1041015148" x="9839.41" y="10920.67" type="priority"/>
    <node id="1041015150" x="9896.75" y="10952.86" type="priority"/>
    <node id="1041015151" x="9898.40" y="10934.97" type="priority"/>
    <node id="1041015161" x="9840.65" y="10954.75" type="priority"/>
    <node id="1041015176" x="9900.76" y="10900.50" type="priority"/>
    <node id="1041059654" x="9661.78" y="11497.58" type="priority"/>
    <node id="1042049252" x="25798.01" y="22829.70" type="priority"/>
    <node id="1042049266" x="25691.84" y="23009.94" type="priority"/>
    <node id="1042049274" x="25718.56" y="22910.87" type="priority"/>
    <node id="1042049275" x="25779.39" y="22824.61" type="priority"/>
    <node id="1042049288" x="25695.34" y="23012.79" type="priority"/>
    <node id="1042049292" x="25750.45" y="22919.38" type="priority"/>
    <node id="1042049304" x="25850.54" y="22912.86" type="priority"/>
    <node id="1042049311" x="25736.94" y="22915.77" type="priority"/>
    <node id="1042049312" x="25708.09" y="23022.31" type="priority"/>
    <node id="1042049315" x="25719.73" y="23029.98" type="priority"/>
    <node id="1042049318" x="25772.00" y="22925.12" type="priority"/>
    <node id="1042049321" x="25758.89" y="22828.50" type="priority"/>
    <node id="1042049323" x="25823.34" y="22910.55" type="priority"/>
    <node id="1042049327" x="25869.87" y="22790.79" type="dead_end"/>
    <node id="1042049329" x="25820.00" y="22910.26" type="priority"/>
    <node id="1042049339" x="25753.83" y="22920.28" type="priority"/>
    <node id="1042049349" x="25819.07" y="22923.45" type="priority"/>
    <node id="1042143701" x="15118.49" y="263.54" type="dead_end"/>
    <node id="1042264797" x="29688.76" y="25642.03" type="priority"/>
    <node id="1042271829" x="29321.79" y="25285.82" type="priority"/>
    <node id="1042272216" x="29322.91" y="25264.68" type="dead_end"/>
    <node id="1042272969" x="29322.30" y="25276.19" type="priority"/>
    <node id="1042286143" x="29290.60" y="24113.82" type="priority"/>
    <node id="1044330204" x="11669.86" y="19215.99" type="priority"/>
    <node id="1044330212" x="12065.33" y="19291.61" type="priority"/>
    <node id="105113363#11-AddedOffRampNode" x="11231.57" y="13416.18" type="priority"/>
    <node id="105223591#1-AddedOffRampNode" x="33224.34" y="21616.34" type="priority"/>
    <node id="105223591#1-AddedOnRampNode" x="32735.54" y="22297.81" type="priority"/>
    <node id="105223591#3-AddedOffRampNode" x="34017.71" y="20395.28" type="priority"/>
    <node id="105223591#3-AddedOnRampNode" x="33819.76" y="20711.87" type="priority"/>
    <node id="105223591#5-AddedOnRampNode" x="34691.87" y="19626.08" type="priority"/>
    <node id="105229816#1-AddedOnRampNode" x="31663.15" y="23883.70" type="priority"/>
    <node id="105229820#1-AddedOffRampNode" x="32273.88" y="23005.62" type="priority"/>
    <node id="105229820#1-AddedOnRampNode" x="32015.48" y="23284.87" type="priority"/>
    <node id="105230109#0-AddedOffRampNode" x="34568.83" y="19825.35" type="priority"/>
    <node id="105230109#2-AddedOffRampNode" x="33706.46" y="20915.29" type="priority"/>
    <node id="105230109#2-AddedOnRampNode" x="34065.38" y="20360.45" type="priority"/>
    <node id="105230109#4-AddedOffRampNode" x="32948.21" y="22060.45" type="priority"/>
    <node id="105230109#4-AddedOnRampNode" x="33256.14" y="21599.84" type="priority"/>
    <node id="1055727310" x="28865.92" y="19917.64" type="priority"/>
    <node id="1055738334" x="9089.76" y="25386.72" type="dead_end"/>
    <node id="1055749092" x="9129.32" y="24866.42" type="priority"/>
    <node id="1055750648" x="7923.46" y="25214.15" type="dead_end"/>
    <node id="1055752252" x="7847.24" y="25390.73" type="dead_end"/>
    <node id="1056354975" x="33103.01" y="22166.87" type="priority"/>
    <node id="1056354998" x="33177.75" y="22173.31" type="priority"/>
    <node id="1056376908" x="33013.30" y="23021.75" type="dead_end"/>
    <node id="1056376919" x="33062.61" y="23005.60" type="priority"/>
    <node id="1056447025" x="32550.39" y="23378.40" type="priority"/>
    <node id="1056447052" x="32468.44" y="23383.63" type="priority"/>
    <node id="1056929870" x="26522.64" y="17123.90" type="priority"/>
    <node id="1056929875" x="26219.27" y="17157.26" type="priority"/>
    <node id="1056929876" x="26260.69" y="16652.34" type="priority"/>
    <node id="1056929878" x="26711.54" y="16756.17" type="priority"/>
    <node id="1056929880" x="26151.95" y="16761.32" type="priority"/>
    <node id="1056929887" x="26520.74" y="16687.47" type="priority"/>
    <node id="1056929889" x="26376.41" y="17056.41" type="priority"/>
    <node id="1056929890" x="26339.16" y="16926.13" type="priority"/>
    <node id="1056929896" x="26788.84" y="16755.37" type="priority"/>
    <node id="1056929897" x="26639.17" y="17122.92" type="priority"/>
    <node id="1056929898" x="26300.77" y="17056.98" type="priority"/>
    <node id="1056929899" x="26231.88" y="16760.25" type="priority"/>
    <node id="1056929900" x="26721.02" y="17122.10" type="priority"/>
    <node id="1056929901" x="26680.21" y="17053.95" type="priority"/>
    <node id="1056929905" x="26778.76" y="16830.81" type="dead_end"/>
    <node id="1056929909" x="26383.35" y="17125.16" type="priority"/>
    <node id="1056929911" x="26115.70" y="16684.64" type="priority"/>
    <node id="1056929913" x="26299.92" y="16984.52" type="priority"/>
    <node id="1056929915" x="26379.26" y="17056.38" type="priority"/>
    <node id="1056929923" x="26721.48" y="17053.37" type="priority"/>
    <node id="1056929924" x="26756.55" y="16908.48" type="priority"/>
    <node id="1056929926" x="26414.70" y="16684.21" type="priority"/>
    <node id="1056929934" x="26339.96" y="16759.48" type="priority"/>
    <node id="1056929936" x="26108.98" y="17059.03" type="priority"/>
    <node id="1056929940" x="26107.28" y="17153.59" type="dead_end"/>
    <node id="1056929949" x="26115.07" y="16762.09" type="priority"/>
    <node id="1056929950" x="26865.59" y="17120.64" type="priority"/>
    <node id="1056929953" x="26825.42" y="16719.16" type="priority"/>
    <node id="1056929954" x="26676.10" y="17155.40" type="priority"/>
    <node id="1056929955" x="26362.76" y="16833.80" type="priority"/>
    <node id="1056929957" x="26325.64" y="16684.97" type="priority"/>
    <node id="1056929959" x="26720.82" y="16980.57" type="priority"/>
    <node id="1056929964" x="26147.08" y="17021.95" type="priority"/>
    <node id="1056929965" x="26857.80" y="16676.11" type="priority"/>
    <node id="1056929966" x="26778.15" y="16755.53" type="dead_end"/>
    <node id="1056929977" x="26559.35" y="17055.02" type="priority"/>
    <node id="1056929980" x="26790.84" y="17057.32" type="priority"/>
    <node id="1056929981" x="26726.51" y="16756.12" type="dead_end"/>
    <node id="1056929985" x="26302.32" y="17056.97" type="priority"/>
    <node id="1056929987" x="26147.94" y="17122.64" type="priority"/>
    <node id="1056929990" x="26148.15" y="17147.43" type="dead_end"/>
    <node id="1056929996" x="26721.57" y="17169.78" type="priority"/>
    <node id="1056929997" x="26692.01" y="16653.26" type="dead_end"/>
    <node id="1056929999" x="26216.22" y="17126.70" type="priority"/>
    <node id="1056930000" x="26262.89" y="16985.06" type="priority"/>
    <node id="1056930003" x="26865.36" y="17087.93" type="priority"/>
    <node id="1056930010" x="26758.71" y="17121.72" type="priority"/>
    <node id="1056930011" x="26859.48" y="16856.39" type="priority"/>
    <node id="1056930012" x="26836.52" y="16908.06" type="priority"/>
    <node id="1056930014" x="26340.41" y="17125.56" type="priority"/>
    <node id="1056930015" x="26826.94" y="17169.41" type="dead_end"/>
    <node id="1056930016" x="26719.87" y="16686.24" type="priority"/>
    <node id="1056930017" x="26826.47" y="16829.80" type="priority"/>
    <node id="1056930026" x="26683.04" y="17053.91" type="priority"/>
    <node id="1056930032" x="26378.13" y="16759.13" type="priority"/>
    <node id="1056930035" x="26826.42" y="16856.98" type="priority"/>
    <node id="1056930037" x="26293.05" y="17158.97" type="priority"/>
    <node id="1056930038" x="26351.41" y="16651.36" type="dead_end"/>
    <node id="1056930040" x="26520.83" y="16721.95" type="priority"/>
    <node id="1056930043" x="26625.01" y="17054.73" type="dead_end"/>
    <node id="1056930045" x="26824.67" y="16685.94" type="priority"/>
    <node id="1056930049" x="26858.25" y="16754.75" type="priority"/>
    <node id="1056930052" x="26719.87" y="16653.04" type="priority"/>
    <node id="1056930053" x="26857.62" y="16649.05" type="dead_end"/>
    <node id="1056930061" x="26323.32" y="17158.76" type="dead_end"/>
    <node id="1056930063" x="26339.71" y="17056.68" type="priority"/>
    <node id="1056930066" x="26926.11" y="17202.75" type="priority"/>
    <node id="1056930067" x="26675.42" y="17122.56" type="priority"/>
    <node id="1056930073" x="26824.66" y="16676.77" type="priority"/>
    <node id="1056930074" x="26260.92" y="16686.08" type="priority"/>
    <node id="1056930075" x="26705.21" y="17155.12" type="dead_end"/>
    <node id="1056930076" x="26212.14" y="17058.00" type="priority"/>
    <node id="1056930078" x="26521.73" y="17019.03" type="priority"/>
    <node id="1056930081" x="26861.61" y="17176.50" type="dead_end"/>
    <node id="1056930098" x="26558.51" y="17123.56" type="priority"/>
    <node id="1056930100" x="26825.65" y="16755.15" type="priority"/>
    <node id="1056930107" x="26791.05" y="17088.83" type="priority"/>
    <node id="1056930110" x="26344.74" y="16897.08" type="priority"/>
    <node id="1056930112" x="26355.70" y="17158.52" type="dead_end"/>
    <node id="1056930123" x="26325.85" y="16911.29" type="priority"/>
    <node id="1056930129" x="26111.59" y="16913.81" type="priority"/>
    <node id="1056930136" x="26147.95" y="17127.32" type="priority"/>
    <node id="1056930140" x="26151.37" y="16723.37" type="priority"/>
    <node id="1056930145" x="26635.47" y="16756.84" type="priority"/>
    <node id="1056930157" x="26292.76" y="17125.99" type="priority"/>
    <node id="1056930158" x="26861.33" y="17120.69" type="priority"/>
    <node id="1056930163" x="26522.04" y="17055.29" type="priority"/>
    <node id="1056930167" x="26151.54" y="16687.95" type="priority"/>
    <node id="1056930171" x="26146.78" y="16985.49" type="priority"/>
    <node id="1056930175" x="26826.38" y="17121.04" type="priority"/>
    <node id="1056930188" x="26519.82" y="16653.35" type="priority"/>
    <node id="1056930190" x="26147.39" y="17058.64" type="priority"/>
    <node id="1056930192" x="26791.55" y="17164.20" type="dead_end"/>
    <node id="1056930195" x="26328.21" y="16919.39" type="priority"/>
    <node id="1056930196" x="26569.54" y="17123.47" type="dead_end"/>
    <node id="1056930198" x="26827.45" y="16907.63" type="priority"/>
    <node id="1056930199" x="26625.71" y="17123.06" type="dead_end"/>
    <node id="1056930201" x="26146.16" y="16913.43" type="priority"/>
    <node id="1056930207" x="26522.35" y="17090.28" type="priority"/>
    <node id="1056930209" x="26147.54" y="17094.53" type="priority"/>
    <node id="1056930213" x="26324.46" y="16651.65" type="priority"/>
    <node id="1056930216" x="26107.87" y="17123.06" type="priority"/>
    <node id="1056930217" x="26860.10" y="16886.26" type="dead_end"/>
    <node id="1056930221" x="26788.93" y="16830.54" type="priority"/>
    <node id="1056930223" x="26338.97" y="16984.16" type="priority"/>
    <node id="1056930225" x="26522.92" y="17156.89" type="priority"/>
    <node id="1056930226" x="26520.91" y="16757.86" type="priority"/>
    <node id="1056930228" x="26897.24" y="17120.32" type="dead_end"/>
    <node id="1056930229" x="26557.50" y="17055.01" type="priority"/>
    <node id="1056930236" x="26711.89" y="16831.03" type="priority"/>
    <node id="1056930237" x="26383.78" y="17158.24" type="priority"/>
    <node id="1056930239" x="26892.76" y="17087.60" type="dead_end"/>
    <node id="1056930241" x="26521.42" y="16982.44" type="priority"/>
    <node id="1056930243" x="26301.28" y="16984.51" type="priority"/>
    <node id="1056930244" x="26116.21" y="16656.44" type="dead_end"/>
    <node id="1056930256" x="26146.46" y="16948.44" type="priority"/>
    <node id="1056930258" x="26571.39" y="17054.91" type="dead_end"/>
    <node id="1056952500" x="26418.72" y="16651.40" type="priority"/>
    <node id="1056952501" x="26189.06" y="16760.55" type="priority"/>
    <node id="1056952509" x="26650.43" y="16654.35" type="dead_end"/>
    <node id="1056952515" x="26623.74" y="16654.15" type="priority"/>
    <node id="1056952516" x="26276.58" y="16834.49" type="priority"/>
    <node id="1056952522" x="26712.88" y="16923.44" type="priority"/>
    <node id="1056952527" x="26738.29" y="16839.00" type="dead_end"/>
    <node id="1056952555" x="26326.26" y="16759.59" type="priority"/>
    <node id="1056952571" x="26826.32" y="16868.02" type="priority"/>
    <node id="1056952586" x="26701.48" y="16895.22" type="priority"/>
    <node id="1056952610" x="26149.63" y="16835.49" type="priority"/>
    <node id="1056952619" x="26188.44" y="16835.44" type="priority"/>
    <node id="1056952622" x="26419.42" y="16684.21" type="priority"/>
    <node id="1056952630" x="26393.92" y="16651.45" type="dead_end"/>
    <node id="1056952638" x="26624.44" y="16686.73" type="priority"/>
    <node id="1057239472" x="9106.82" y="24120.06" type="priority"/>
    <node id="1057239508" x="9412.95" y="24168.49" type="dead_end"/>
    <node id="1057247100" x="9264.65" y="24017.50" type="priority"/>
    <node id="1057253930" x="8996.31" y="24705.95" type="priority"/>
    <node id="1057253944" x="8756.09" y="24663.27" type="priority"/>
    <node id="1057257358" x="8938.32" y="24173.94" type="priority"/>
    <node id="1057281536" x="9387.27" y="24882.46" type="dead_end"/>
    <node id="1057300400" x="9218.22" y="24643.97" type="dead_end"/>
    <node id="1057315623" x="8063.89" y="25296.03" type="dead_end"/>
    <node id="1057316223" x="28345.59" y="18556.01" type="priority"/>
    <node id="1057316299" x="28359.99" y="18515.81" type="priority"/>
    <node id="1057316327" x="28359.18" y="18584.05" type="priority"/>
    <node id="1057316330" x="28396.83" y="18591.86" type="priority"/>
    <node id="1057320556" x="8290.89" y="24902.98" type="dead_end"/>
    <node id="1057337097" x="9337.92" y="23699.95" type="dead_end"/>
    <node id="1057337113" x="9295.79" y="23759.36" type="priority"/>
    <node id="1057347088" x="9116.74" y="23964.75" type="dead_end"/>
    <node id="1057347110" x="9224.36" y="23812.21" type="priority"/>
    <node id="1057348103" x="27094.34" y="18506.52" type="priority"/>
    <node id="1057348156" x="27511.31" y="18254.14" type="priority"/>
    <node id="1057348189" x="27100.98" y="18520.41" type="priority"/>
    <node id="1057348197" x="27154.85" y="18512.71" type="priority"/>
    <node id="1057348206" x="27134.42" y="18470.45" type="priority"/>
    <node id="1057348234" x="27962.28" y="17806.31" type="priority"/>
    <node id="1057348356" x="27306.55" y="18338.99" type="priority"/>
    <node id="1057348440" x="27331.74" y="18326.52" type="unregulated"/>
    <node id="1057348457" x="27273.42" y="18354.90" type="priority"/>
    <node id="1057435781" x="27580.17" y="20061.27" type="priority"/>
    <node id="1057435821" x="27553.17" y="20020.65" type="priority"/>
    <node id="1057435833" x="27588.89" y="20004.94" type="priority"/>
    <node id="1057435836" x="27537.86" y="20048.62" type="dead_end"/>
    <node id="1057435842" x="27593.50" y="20014.15" type="priority"/>
    <node id="1057513338" x="14656.31" y="19526.53" type="priority"/>
    <node id="1057790411" x="10883.28" y="18921.53" type="dead_end"/>
    <node id="1057790421" x="11415.79" y="19106.14" type="dead_end"/>
    <node id="1057790447" x="12217.43" y="19203.51" type="dead_end"/>
    <node id="1057914592" x="11090.43" y="18914.05" type="priority"/>
    <node id="1057927523" x="28891.10" y="19856.33" type="priority"/>
    <node id="1057927535" x="30000.23" y="20278.07" type="priority"/>
    <node id="1057927554" x="30199.53" y="20009.19" type="dead_end"/>
    <node id="1057927573" x="30154.37" y="19989.64" type="priority"/>
    <node id="1057927576" x="30161.92" y="19991.12" type="priority"/>
    <node id="1057927580" x="30136.42" y="20046.39" type="priority"/>
    <node id="1057927610" x="30114.14" y="20862.05" type="priority"/>
    <node id="1057927615" x="30079.76" y="20827.78" type="priority"/>
    <node id="1057927628" x="30188.09" y="19994.51" type="dead_end"/>
    <node id="1057927634" x="29928.88" y="20291.93" type="priority"/>
    <node id="1057927645" x="29976.45" y="20269.41" type="priority"/>
    <node id="1057927652" x="30114.13" y="19962.30" type="priority"/>
    <node id="1057927663" x="30239.49" y="19985.39" type="dead_end"/>
    <node id="1057927681" x="30267.90" y="20030.71" type="dead_end"/>
    <node id="1057927682" x="30246.38" y="19981.01" type="priority"/>
    <node id="1057927703" x="30130.32" y="19980.44" type="priority"/>
    <node id="1057927712" x="29979.58" y="20208.07" type="priority"/>
    <node id="1057927726" x="29125.42" y="19672.87" type="priority"/>
    <node id="1057927732" x="30103.72" y="20820.99" type="priority"/>
    <node id="1057927734" x="30274.73" y="20026.59" type="priority"/>
    <node id="1057927764" x="30146.49" y="20030.02" type="priority"/>
    <node id="1057927768" x="30087.43" y="20868.14" type="priority"/>
    <node id="1057927772" x="30166.78" y="20002.68" type="priority"/>
    <node id="1057927773" x="29968.10" y="20220.45" type="priority"/>
    <node id="1058019894" x="14578.31" y="17219.38" type="priority"/>
    <node id="1058019903" x="14584.92" y="17179.89" type="priority"/>
    <node id="1058019913" x="14570.51" y="17266.11" type="priority"/>
    <node id="1058019916" x="14567.73" y="17282.75" type="priority"/>
    <node id="1058019920" x="14592.17" y="17268.46" type="priority"/>
    <node id="1058019925" x="12140.54" y="18903.53" type="priority"/>
    <node id="1058019929" x="12132.22" y="18885.17" type="unregulated"/>
    <node id="1058019931" x="14574.70" y="17241.03" type="priority"/>
    <node id="1058019970" x="12121.69" y="18890.48" type="unregulated"/>
    <node id="1058053705" x="28198.92" y="19896.58" type="priority"/>
    <node id="1058053708" x="28447.71" y="20108.79" type="priority"/>
    <node id="1058053821" x="28144.67" y="19911.94" type="dead_end"/>