<?xml version="1.0" encoding="UTF-8"?>

<!-- generated on Wed Oct 23 15:00:32 2013 by SUMO netconvert Version 0.17.1
<?xml version="1.0" encoding="UTF-8"?>

<configuration xmlns:xsi="http://www.w3.org/2001/XMLSchema-instance" xsi:noNamespaceSchemaLocation="http://sumo.sf.net/xsd/netconvertConfiguration.xsd">

    <input>
        <sumo-net-file value="manhattan.net.xml"/>
    </input>

    <output>
        <plain-output-prefix value="manhattan"/>
    </output>

    <processing>
        <no-turnarounds value="true"/>
        <offset.disable-normalization value="true"/>
    </processing>

</configuration>
-->

<nodes version="0.13" xmlns:xsi="http://www.w3.org/2001/XMLSchema-instance" xsi:noNamespaceSchemaLocation="http://sumo.sf.net/xsd/nodes_file.xsd">
    <location netOffset="-581373.60,-4504806.24" convBoundary="0.00,0.00,6314.05,7060.26" origBoundary="-74.036357,40.689920,-73.901051,40.811198" projParameter="+proj=utm +zone=18 +ellps=WGS84 +datum=WGS84 +units=m +no_defs"/>

    <node id="-25564312-AddedOffRampNode" x="2884.29" y="2331.08" type="priority"/>
    <node id="-44063" x="3441.13" y="3452.99" type="traffic_light" tl="-44063"/>
    <node id="-44065" x="3572.10" y="3884.12" type="traffic_light" tl="joinedS_0"/>
    <node id="-44067" x="3509.60" y="3691.69" type="traffic_light" tl="-44067"/>
    <node id="-44068" x="3192.13" y="2740.61" type="priority"/>
    <node id="-44069" x="3566.24" y="3866.20" type="traffic_light" tl="joinedS_0"/>
    <node id="-44071" x="3603.70" y="3983.01" type="priority"/>
    <node id="-44072" x="3382.46" y="3247.99" type="traffic_light" tl="-44072"/>
    <node id="-44073" x="3330.43" y="3116.10" type="traffic_light" tl="-44073"/>
    <node id="-44076" x="3464.53" y="3533.86" type="traffic_light" tl="-44076"/>
    <node id="-44077" x="3185.59" y="2795.27" type="priority"/>
    <node id="-44078" x="3216.46" y="2866.45" type="traffic_light" tl="-44078"/>
    <node id="-44080" x="3416.46" y="3368.82" type="traffic_light" tl="-44080"/>
    <node id="-44081" x="3276.45" y="2998.25" type="traffic_light" tl="-44081"/>
    <node id="1042457810" x="2380.03" y="5503.16" type="priority"/>
    <node id="1042457827" x="2370.22" y="5490.27" type="priority"/>
    <node id="1104165608" x="2375.25" y="3474.58" type="priority"/>
    <node id="1228990840" x="4554.77" y="3070.31" type="priority"/>
    <node id="1228990841" x="4708.62" y="3011.16" type="priority"/>
    <node id="1228990842" x="4560.91" y="3088.44" type="priority"/>
    <node id="1228990844" x="4664.49" y="3028.43" type="priority"/>
    <node id="1228990851" x="4714.78" y="3027.03" type="priority"/>
    <node id="1228990853" x="4670.30" y="3044.44" type="priority"/>
    <node id="1228990855" x="4592.86" y="3055.23" type="priority"/>
    <node id="1228990857" x="4608.93" y="3050.18" type="priority"/>
    <node id="1228990859" x="4810.55" y="3231.23" type="dead_end"/>
    <node id="1228990861" x="4615.06" y="3066.06" type="priority"/>
    <node id="1228990862" x="4600.05" y="3073.09" type="priority"/>
    <node id="1242148282" x="2321.23" y="1383.13" type="priority"/>
    <node id="1251359553" x="2225.85" y="1482.13" type="priority"/>
    <node id="1251359554" x="2262.23" y="1348.66" type="priority"/>
    <node id="1251359556" x="2173.62" y="1608.44" type="priority"/>
    <node id="1251359563" x="2245.12" y="1490.46" type="priority"/>
    <node id="1251605769" x="3855.87" y="5009.23" type="priority"/>
    <node id="1251605891" x="3861.52" y="4994.42" type="priority"/>
    <node id="1251612251" x="4343.49" y="4831.81" type="priority"/>
    <node id="1251612259" x="4417.31" y="4968.91" type="priority"/>
    <node id="1251612266" x="4418.80" y="4882.23" type="traffic_light" tl="1251612266"/>
    <node id="1251612268" x="4416.52" y="4792.42" type="priority"/>
    <node id="1251612286" x="4490.15" y="4929.46" type="priority"/>
    <node id="1251830454" x="4188.65" y="5385.94" type="priority"/>
    <node id="1251830468" x="4312.43" y="5320.90" type="priority"/>
    <node id="1251908549" x="2835.90" y="2500.09" type="priority"/>
    <node id="1251908564" x="3020.43" y="2556.31" type="priority"/>
    <node id="1251908574" x="2842.53" y="2495.20" type="priority"/>
    <node id="1251908576" x="2953.75" y="2651.21" type="priority"/>
    <node id="1251908577" x="3064.51" y="2716.42" type="priority"/>
    <node id="1251908606" x="2815.86" y="2660.00" type="priority"/>
    <node id="1251958125" x="2349.34" y="1672.88" type="priority"/>
    <node id="1251958156" x="2393.52" y="1552.80" type="priority"/>
    <node id="1251958193" x="1975.90" y="1659.45" type="priority"/>
    <node id="1251958196" x="2376.53" y="1538.48" type="priority"/>
    <node id="1251958257" x="2352.61" y="1660.66" type="priority"/>
    <node id="1253070385" x="2816.91" y="2685.41" type="priority"/>
    <node id="1253070422" x="2868.54" y="2710.69" type="priority"/>
    <node id="1253070618" x="2825.19" y="2666.19" type="priority"/>
    <node id="1253070671" x="2799.78" y="2684.80" type="priority"/>
    <node id="1253070785" x="2799.47" y="2877.59" type="priority"/>
    <node id="1253070826" x="2832.13" y="2846.59" type="priority"/>
    <node id="1253070923" x="2724.26" y="2758.37" type="priority"/>
    <node id="1253070985" x="2925.82" y="2801.09" type="priority"/>
    <node id="1253070999" x="2806.22" y="2706.54" type="priority"/>
    <node id="1253071031" x="2884.86" y="2747.55" type="priority"/>
    <node id="1253071045" x="2822.89" y="2761.65" type="priority"/>
    <node id="1261680417" x="2829.89" y="6077.83" type="traffic_light"/>
    <node id="1261680422" x="2687.97" y="5816.23" type="priority"/>
    <node id="1261680426" x="2982.55" y="6359.26" type="priority"/>
    <node id="1261680429" x="2758.92" y="5947.02" type="traffic_light"/>
    <node id="1261680434" x="2723.50" y="5881.73" type="traffic_light" tl="joinedS_4"/>
    <node id="1261680442" x="3020.24" y="6428.74" type="priority"/>
    <node id="1261680445" x="2794.41" y="6012.45" type="traffic_light" tl="joinedS_5"/>
    <node id="1261680449" x="2865.29" y="6143.09" type="priority"/>
    <node id="1261680453" x="2943.11" y="6286.54" type="priority"/>
    <node id="1261680457" x="2902.79" y="6212.22" type="priority"/>
    <node id="1261680460" x="3058.54" y="6499.33" type="priority"/>
    <node id="1261680467" x="3133.48" y="6637.50" type="priority"/>
    <node id="1266105912" x="5147.48" y="5283.17" type="priority"/>
    <node id="1272562732" x="2738.34" y="2436.66" type="priority"/>
    <node id="1272562895" x="2677.41" y="2454.56" type="priority"/>
    <node id="1272562910" x="2762.17" y="2507.04" type="priority"/>
    <node id="1272562931" x="2582.31" y="2450.49" type="priority"/>
    <node id="1279337135" x="2172.94" y="1854.24" type="priority"/>
    <node id="1279337144" x="2243.03" y="1872.97" type="priority"/>
    <node id="1279337145" x="2155.68" y="1945.98" type="unregulated"/>
    <node id="1293174686" x="5073.82" y="6034.09" type="priority"/>
    <node id="1293174688" x="4990.62" y="5903.62" type="priority"/>
    <node id="1293174689" x="4964.78" y="5829.20" type="priority"/>
    <node id="1293195712" x="5028.61" y="5975.51" type="priority"/>
    <node id="1369956652" x="3010.01" y="1927.04" type="priority"/>
    <node id="1369956653" x="2884.77" y="2264.13" type="priority"/>
    <node id="1369956654" x="2707.18" y="2473.11" type="priority"/>
    <node id="1402823158" x="2092.19" y="5549.30" type="priority"/>
    <node id="1421313355" x="1887.66" y="2278.32" type="dead_end"/>
    <node id="1430380058" x="1640.86" y="1669.99" type="priority"/>
    <node id="1430380135" x="1598.33" y="1791.56" type="priority"/>
    <node id="1431790465" x="1909.29" y="2551.13" type="priority"/>
    <node id="1478572209" x="5373.62" y="5678.08" type="priority"/>
    <node id="1478572232" x="5393.03" y="5803.76" type="dead_end"/>
    <node id="1478572253" x="5436.49" y="5968.41" type="unregulated"/>
    <node id="1506902240" x="2071.56" y="2114.90" type="traffic_light" tl="joinedS_6"/>
    <node id="1507184375" x="2433.57" y="1734.98" type="priority"/>
    <node id="1507184376" x="2480.28" y="1695.10" type="priority"/>
    <node id="1538237248" x="2582.98" y="2224.75" type="priority"/>
    <node id="1538237300" x="3209.91" y="2159.45" type="dead_end"/>
    <node id="1538237310" x="3275.19" y="2151.84" type="priority"/>
    <node id="1538237325" x="3280.43" y="2128.89" type="priority"/>
    <node id="1538237359" x="3270.31" y="2173.27" type="priority"/>
    <node id="1538237434" x="2473.70" y="2297.88" type="priority"/>
    <node id="1538237463" x="3214.91" y="2138.51" type="dead_end"/>
    <node id="1538237508" x="3314.65" y="2183.43" type="dead_end"/>
    <node id="1541937888" x="3008.68" y="2246.93" type="priority"/>
    <node id="1541937912" x="3288.08" y="2461.70" type="priority"/>
    <node id="1541937926" x="3355.80" y="2391.88" type="priority"/>
    <node id="1541937939" x="3200.10" y="2448.91" type="priority"/>
    <node id="1541937951" x="3134.93" y="2441.12" type="priority"/>
    <node id="1541937953" x="3279.68" y="2470.50" type="priority"/>
    <node id="1541937980" x="3273.40" y="2459.40" type="priority"/>
    <node id="1541937990" x="3238.38" y="2302.75" type="priority"/>
    <node id="1541938066" x="3043.62" y="2337.10" type="priority"/>
    <node id="1577583860" x="5356.26" y="5218.70" type="priority"/>
    <node id="1577583885" x="5355.44" y="5221.37" type="priority"/>
    <node id="1584024995" x="2661.39" y="2165.65" type="priority"/>
    <node id="1632878994" x="5070.79" y="5609.64" type="traffic_light" tl="1632878994"/>
    <node id="1683645326" x="2508.89" y="2428.46" type="priority"/>
    <node id="1683645337" x="2450.20" y="2524.89" type="priority"/>
    <node id="1692433907" x="3728.08" y="3940.02" type="traffic_light" tl="joinedS_7"/>
    <node id="1692433910" x="3664.32" y="3963.19" type="priority"/>
    <node id="1692433914" x="3543.28" y="4003.41" type="priority"/>
    <node id="1692433916" x="3527.96" y="4013.69" type="priority"/>
    <node id="1692433918" x="3493.11" y="4035.40" type="priority"/>
    <node id="1692433919" x="3425.92" y="4078.34" type="priority"/>
    <node id="1692433920" x="3356.56" y="4122.42" type="priority"/>
    <node id="1692433921" x="3292.44" y="4163.91" type="priority"/>
    <node id="1692433922" x="3300.43" y="4176.36" type="priority"/>
    <node id="1692433923" x="3311.06" y="4192.93" type="priority"/>
    <node id="1692433924" x="3227.92" y="4204.46" type="priority"/>
    <node id="1692433925" x="3236.21" y="4217.37" type="priority"/>
    <node id="1692433926" x="3246.84" y="4233.93" type="priority"/>
    <node id="1692433928" x="3161.59" y="4246.54" type="traffic_light" tl="1692433928"/>
    <node id="1692433929" x="3360.71" y="4270.36" type="priority"/>
    <node id="1692433930" x="3370.41" y="4285.48" type="priority"/>
    <node id="1692433932" x="3100.50" y="4285.32" type="traffic_light" tl="1692433932"/>
    <node id="1692433933" x="3296.10" y="4312.04" type="priority"/>
    <node id="1692433934" x="3305.44" y="4326.56" type="priority"/>
    <node id="1692433935" x="3035.97" y="4326.26" type="traffic_light" tl="1692433935"/>
    <node id="1692433936" x="3316.34" y="4343.53" type="priority"/>
    <node id="1692433938" x="2971.34" y="4366.67" type="priority"/>
    <node id="1692433939" x="3028.84" y="4457.88" type="priority"/>
    <node id="1692433940" x="3059.99" y="4507.66" type="traffic_light" tl="1692433940"/>
    <node id="1692433941" x="3104.47" y="4577.26" type="traffic_light" tl="1692433941"/>
    <node id="1692433942" x="3144.25" y="4641.34" type="priority"/>
    <node id="1692450029" x="4595.44" y="5210.17" type="traffic_light" tl="1692450029"/>
    <node id="1693014452" x="2193.07" y="1913.52" type="priority"/>
    <node id="1701898726" x="2120.48" y="3989.93" type="dead_end"/>
    <node id="1702442163" x="1681.56" y="2826.17" type="priority"/>
    <node id="1728266858" x="5372.25" y="5158.58" type="dead_end"/>
    <node id="1728266910" x="5256.45" y="5191.50" type="priority"/>
    <node id="1728266928" x="5234.00" y="5212.56" type="priority"/>
    <node id="1728266957" x="5223.88" y="5223.64" type="priority"/>
    <node id="1728266963" x="5216.24" y="5228.35" type="priority"/>
    <node id="1729086998" x="5137.18" y="5999.03" type="priority"/>
    <node id="1729087000" x="5118.20" y="6009.83" type="priority"/>
    <node id="1730318397" x="3037.60" y="2536.70" type="dead_end"/>
    <node id="1730318401" x="3096.08" y="2554.06" type="dead_end"/>
    <node id="1730318417" x="3020.32" y="2479.98" type="priority"/>
    <node id="1730318428" x="3087.26" y="2523.53" type="priority"/>
    <node id="1754817317" x="3125.96" y="2448.48" type="priority"/>
    <node id="1754817323" x="3062.47" y="2362.56" type="priority"/>
    <node id="1754823149" x="3187.38" y="2240.91" type="dead_end"/>
    <node id="1754823408" x="3190.56" y="2238.29" type="priority"/>
    <node id="1772058063" x="2061.93" y="1429.25" type="priority"/>
    <node id="1772136803" x="1900.61" y="1619.12" type="priority"/>
    <node id="1773055860" x="3018.28" y="2578.65" type="priority"/>
    <node id="1773055862" x="2881.94" y="2528.99" type="priority"/>
    <node id="1773055863" x="2875.08" y="2532.71" type="priority"/>
    <node id="1773060097" x="3292.09" y="2691.98" type="traffic_light" tl="joinedS_9"/>
    <node id="1773060099" x="3253.63" y="2660.74" type="traffic_light" tl="joinedS_10"/>
    <node id="1773063787" x="3330.54" y="2758.02" type="priority"/>
    <node id="1773063789" x="3355.69" y="2803.90" type="traffic_light" tl="joinedS_11"/>
    <node id="1773066054" x="3310.66" y="2698.28" type="priority"/>
    <node id="1773076509" x="3612.88" y="3459.90" type="traffic_light" tl="joinedS_12"/>
    <node id="1773076778" x="3633.37" y="3535.06" type="traffic_light" tl="joinedS_13"/>
    <node id="1773078006" x="3654.45" y="3616.25" type="traffic_light" tl="joinedS_14"/>
    <node id="1773082408" x="3668.04" y="3666.78" type="priority"/>
    <node id="1773082410" x="3710.73" y="3822.33" type="traffic_light" tl="joinedS_15"/>
    <node id="1773084391" x="3740.44" y="3936.17" type="traffic_light" tl="joinedS_7"/>
    <node id="1773084402" x="3794.74" y="4141.54" type="traffic_light" tl="joinedS_16"/>
    <node id="1773084405" x="3774.44" y="4064.08" type="traffic_light" tl="joinedS_17"/>
    <node id="1773084407" x="3752.21" y="3981.28" type="traffic_light" tl="joinedS_18"/>
    <node id="1773084410" x="3730.31" y="3897.34" type="traffic_light" tl="joinedS_19"/>
    <node id="1773121031" x="3793.87" y="4193.06" type="priority"/>
    <node id="1773121032" x="3829.21" y="4240.42" type="priority"/>
    <node id="1773121033" x="3846.75" y="4291.33" type="priority"/>
    <node id="1773121034" x="3815.27" y="4214.03" type="traffic_light" tl="1773121034"/>
    <node id="1773121036" x="3804.08" y="4213.72" type="traffic_light" tl="1773121036"/>
    <node id="1773121037" x="3864.83" y="4305.96" type="priority"/>
    <node id="1775260897" x="3533.68" y="2965.93" type="priority"/>
    <node id="1775260905" x="3507.33" y="2895.74" type="priority"/>
    <node id="1775267750" x="4031.37" y="3697.62" type="traffic_light"/>
    <node id="1775270664" x="4244.32" y="3624.00" type="traffic_light" tl="joinedS_21"/>
    <node id="1782672705" x="2106.41" y="2631.98" type="priority"/>
    <node id="1782672710" x="2097.58" y="2537.09" type="priority"/>
    <node id="1812608107" x="2275.03" y="4338.59" type="priority"/>
    <node id="1812608108" x="2194.24" y="4347.67" type="priority"/>
    <node id="1814477468" x="5054.32" y="5146.68" type="priority"/>
    <node id="1825739992" x="2562.22" y="5223.59" type="priority"/>
    <node id="1905965196" x="3325.20" y="2932.14" type="priority"/>
    <node id="1905965197" x="3396.74" y="2899.69" type="priority"/>
    <node id="1918039864" x="3695.42" y="3811.71" type="traffic_light" tl="joinedS_15"/>
    <node id="1918039869" x="3505.43" y="3898.61" type="traffic_light" tl="joinedS_23"/>
    <node id="1918039876" x="3971.85" y="3705.21" type="priority"/>
    <node id="1918039877" x="3834.22" y="3757.95" type="traffic_light" tl="joinedS_24"/>
    <node id="1918039880" x="3422.98" y="3926.59" type="traffic_light" tl="joinedS_25"/>
    <node id="1918039896" x="3897.96" y="3734.10" type="traffic_light" tl="joinedS_26"/>
    <node id="1918039897" x="3467.29" y="3912.77" type="traffic_light" tl="joinedS_27"/>
    <node id="1918039898" x="3627.10" y="3841.90" type="traffic_light" tl="joinedS_28"/>
    <node id="1918039904" x="3706.49" y="3806.83" type="traffic_light" tl="joinedS_15"/>
    <node id="1919595910" x="4372.64" y="3549.54" type="traffic_light" tl="joinedS_29"/>
    <node id="1919595911" x="4164.45" y="3629.63" type="priority"/>
    <node id="1919595912" x="4514.94" y="3494.12" type="traffic_light" tl="1919595912"/>
    <node id="1919595913" x="2833.04" y="4261.72" type="traffic_light" tl="joinedS_30"/>
    <node id="1919595914" x="4101.25" y="3654.77" type="traffic_light" tl="joinedS_31"/>
    <node id="1919595915" x="3345.14" y="3949.76" type="traffic_light" tl="joinedS_32"/>
    <node id="1919595916" x="3078.00" y="4114.89" type="traffic_light" tl="joinedS_33"/>
    <node id="1919595917" x="3210.60" y="4030.94" type="traffic_light" tl="joinedS_34"/>
    <node id="1919595918" x="3017.97" y="4153.56" type="traffic_light" tl="joinedS_35"/>
    <node id="1919595921" x="4445.58" y="3522.67" type="traffic_light" tl="joinedS_36"/>
    <node id="1919595922" x="4667.95" y="3457.08" type="traffic_light" tl="joinedS_37"/>
    <node id="1919595923" x="4586.93" y="3466.61" type="priority"/>
    <node id="1919595924" x="4301.29" y="3577.16" type="traffic_light" tl="joinedS_38"/>
    <node id="1919595925" x="3273.53" y="3991.52" type="traffic_light" tl="joinedS_39"/>
    <node id="1919595926" x="3145.54" y="4071.21" type="priority"/>
    <node id="1919595927" x="2951.62" y="4193.51" type="traffic_light" tl="joinedS_40"/>
    <node id="1919595928" x="2888.10" y="4233.72" type="traffic_light" tl="joinedS_41"/>
    <node id="1919595929" x="4234.82" y="3602.98" type="traffic_light" tl="joinedS_21"/>
    <node id="1927758595" x="5190.45" y="4466.04" type="priority"/>
    <node id="1927758597" x="5098.31" y="4554.97" type="priority"/>
    <node id="1927758598" x="5123.43" y="4613.14" type="priority"/>
    <node id="1989931095" x="5385.40" y="4070.81" type="dead_end"/>
    <node id="1989931098" x="5214.56" y="4511.87" type="priority"/>
    <node id="1989931103" x="5083.88" y="4350.96" type="priority"/>
    <node id="1989931105" x="5176.68" y="4439.87" type="priority"/>
    <node id="1989931107" x="5217.60" y="4486.03" type="priority"/>
    <node id="1989931109" x="5147.08" y="4355.79" type="priority"/>
    <node id="1989931117" x="5189.53" y="4433.09" type="priority"/>
    <node id="1989931122" x="5145.20" y="4380.03" type="priority"/>
    <node id="1989931124" x="5077.62" y="4338.07" type="priority"/>
    <node id="1991212105" x="5438.39" y="4404.48" type="priority"/>
    <node id="1991212114" x="5355.79" y="4109.36" type="dead_end"/>
    <node id="1991212132" x="5292.68" y="4134.74" type="priority"/>
    <node id="1991891670" x="2666.20" y="2110.81" type="priority"/>
    <node id="2011991638" x="4249.51" y="3020.25" type="priority"/>
    <node id="205008848" x="3470.62" y="2912.44" type="priority"/>
    <node id="205008849" x="3441.81" y="2981.44" type="traffic_light" tl="205008849"/>
    <node id="205018129" x="2995.98" y="1902.98" type="priority"/>
    <node id="205019740" x="3016.36" y="1947.09" type="priority"/>
    <node id="205020852" x="2324.29" y="1354.22" type="priority"/>
    <node id="205021629" x="2097.83" y="1284.06" type="priority"/>
    <node id="205025778" x="3157.53" y="2104.49" type="priority"/>
    <node id="205026279" x="3249.07" y="2120.62" type="priority"/>
    <node id="2053820768" x="1595.22" y="1700.80" type="priority"/>
    <node id="2073622000" x="2555.03" y="4390.00" type="priority"/>
    <node id="2073622011" x="2551.39" y="4472.20" type="priority"/>
    <node id="2073945861" x="3312.50" y="4626.78" type="priority"/>
    <node id="2073945872" x="3341.83" y="4608.35" type="priority"/>
    <node id="2076950449" x="2564.98" y="5148.35" type="priority"/>
    <node id="2076950450" x="2620.88" y="5157.98" type="priority"/>
    <node id="2077984658" x="3874.82" y="5022.92" type="priority"/>
    <node id="2077984663" x="3877.80" y="5025.36" type="priority"/>
    <node id="2077984664" x="3791.00" y="5032.21" type="priority"/>
    <node id="2103787748" x="1921.69" y="1266.22" type="priority"/>
    <node id="214342973" x="3795.79" y="2188.81" type="unregulated"/>
    <node id="2178860429" x="2153.53" y="3968.05" type="traffic_light" tl="joinedS_8"/>
    <node id="2178860430" x="2138.03" y="4001.88" type="traffic_light" tl="joinedS_8"/>
    <node id="2183010557" x="2126.31" y="1621.48" type="priority"/>
    <node id="2186614207" x="2417.66" y="1641.68" type="priority"/>
    <node id="2186614245" x="2382.07" y="1682.37" type="priority"/>
    <node id="2263649075" x="1928.79" y="2727.57" type="priority"/>
    <node id="2302133933" x="4423.98" y="5673.29" type="traffic_light" tl="2302133933"/>
    <node id="2307164597" x="3557.33" y="6318.78" type="unregulated"/>
    <node id="2307164619" x="3825.15" y="6085.33" type="priority"/>
    <node id="2307164622" x="3858.62" y="6156.17" type="priority"/>
    <node id="2307164623" x="3871.97" y="6148.94" type="priority"/>
    <node id="2307164625" x="3834.43" y="6080.33" type="priority"/>
    <node id="2324482224" x="4700.46" y="3999.51" type="traffic_light" tl="2324482224"/>
    <node id="2348991669" x="4867.00" y="2519.29" type="priority"/>
    <node id="2350521208" x="3429.02" y="2157.90" type="priority"/>
    <node id="2359921665" x="4646.04" y="3146.45" type="dead_end"/>
    <node id="2378395414" x="2444.22" y="1486.87" type="priority"/>
    <node id="2378397706" x="2342.65" y="1365.39" type="priority"/>
    <node id="246579753" x="2386.82" y="6457.07" type="unregulated"/>
    <node id="246580294" x="2350.72" y="6584.68" type="unregulated"/>
    <node id="246580345" x="2330.37" y="6098.02" type="traffic_light" tl="joinedS_44"/>
    <node id="246580346" x="2339.92" y="6091.05" type="traffic_light" tl="joinedS_44"/>
    <node id="246580445" x="2510.27" y="6616.35" type="unregulated"/>
    <node id="246580758" x="2452.74" y="6552.68" type="dead_end"/>
    <node id="246580982" x="2332.24" y="6024.83" type="traffic_light" tl="joinedS_46"/>
    <node id="246647919" x="2221.93" y="5447.78" type="traffic_light" tl="joinedS_47"/>
    <node id="246647920" x="2227.31" y="5482.46" type="traffic_light" tl="joinedS_48"/>
    <node id="246647953" x="2285.38" y="5701.81" type="priority"/>
    <node id="246647955" x="2263.07" y="5611.83" type="priority"/>
    <node id="246648063" x="2315.66" y="5903.70" type="traffic_light" tl="joinedS_49"/>
    <node id="246648216" x="2336.46" y="5820.86" type="priority"/>
    <node id="246648219" x="2385.64" y="5844.37" type="priority"/>
    <node id="246648624" x="2097.16" y="5549.01" type="priority"/>
    <node id="246648626" x="2199.77" y="5487.57" type="traffic_light" tl="joinedS_48"/>
    <node id="246648627" x="2210.73" y="5485.75" type="traffic_light" tl="joinedS_48"/>
    <node id="246648655" x="2079.63" y="5550.32" type="dead_end"/>
    <node id="246648824" x="2274.40" y="5703.34" type="priority"/>
    <node id="246648825" x="2047.71" y="5732.27" type="dead_end"/>
    <node id="246649342" x="2214.28" y="5298.72" type="traffic_light" tl="joinedS_51"/>
    <node id="246649343" x="2214.82" y="5279.82" type="traffic_light"/>
    <node id="246649344" x="2204.65" y="5049.71" type="traffic_light" tl="joinedS_52"/>
    <node id="246649345" x="2203.41" y="5030.92" type="traffic_light"/>
    <node id="246649346" x="2195.05" y="4871.98" type="traffic_light"/>
    <node id="246649427" x="2205.71" y="5395.58" type="traffic_light" tl="joinedS_47"/>
    <node id="246649429" x="2222.77" y="5418.94" type="traffic_light" tl="joinedS_47"/>
    <node id="246649433" x="2242.59" y="5452.60" type="priority"/>
    <node id="246651791" x="2267.46" y="5704.36" type="priority"/>
    <node id="246651798" x="2193.91" y="5487.85" type="priority"/>
    <node id="246652085" x="2370.70" y="6327.26" type="traffic_light" tl="246652085"/>
    <node id="246652323" x="2329.96" y="6148.54" type="priority"/>
    <node id="246652326" x="2363.35" y="6143.87" type="traffic_light" tl="joinedS_54"/>
    <node id="246652365" x="2347.02" y="6147.17" type="traffic_light"/>
    <node id="246652629" x="2337.38" y="6068.63" type="traffic_light"/>
    <node id="246652630" x="2354.04" y="6069.40" type="traffic_light" tl="joinedS_44"/>
    <node id="246652650" x="2328.07" y="5994.02" type="traffic_light" tl="246652650"/>
    <node id="246652651" x="2344.09" y="5988.43" type="traffic_light" tl="joinedS_46"/>
    <node id="246652739" x="2315.48" y="5901.93" type="traffic_light"/>
    <node id="246652740" x="2332.05" y="5898.77" type="traffic_light" tl="joinedS_49"/>
    <node id="246652755" x="2301.19" y="5808.26" type="traffic_light"/>
    <node id="246670216" x="3912.10" y="4999.78" type="priority"/>
    <node id="246857083" x="2177.29" y="4582.22" type="traffic_light" tl="246857083"/>
    <node id="246857084" x="2162.52" y="4352.06" type="traffic_light" tl="joinedS_22"/>
    <node id="246858431" x="1823.64" y="2209.29" type="traffic_light" tl="joinedS_56"/>
    <node id="246858433" x="1855.89" y="2346.31" type="traffic_light" tl="joinedS_57"/>
    <node id="246858435" x="1944.24" y="2808.11" type="traffic_light" tl="joinedS_58"/>
    <node id="246858445" x="2045.49" y="3375.59" type="traffic_light"/>
    <node id="246858448" x="1986.81" y="3030.44" type="traffic_light" tl="joinedS_60"/>
    <node id="246858449" x="1973.84" y="2948.56" type="traffic_light" tl="joinedS_61"/>
    <node id="246858654" x="1671.86" y="1648.65" type="traffic_light" tl="joinedS_62"/>
    <node id="246861652" x="2224.66" y="5395.78" type="traffic_light" tl="joinedS_47"/>
    <node id="246862616" x="2222.05" y="5049.18" type="traffic_light"/>
    <node id="246862852" x="2221.54" y="5029.68" type="traffic_light" tl="joinedS_63"/>
    <node id="246866788" x="1755.81" y="1979.72" type="traffic_light" tl="joinedS_64"/>
    <node id="246866793" x="1663.34" y="1651.02" type="traffic_light" tl="joinedS_62"/>
    <node id="246866798" x="1810.33" y="2205.90" type="traffic_light" tl="joinedS_56"/>
    <node id="246866806" x="1900.41" y="2653.53" type="traffic_light" tl="joinedS_65"/>
    <node id="246866810" x="1932.46" y="2809.56" type="traffic_light" tl="joinedS_58"/>
    <node id="246866828" x="1975.02" y="3037.40" type="traffic_light" tl="joinedS_60"/>
    <node id="246866830" x="1959.97" y="2957.06" type="traffic_light" tl="joinedS_61"/>
    <node id="246874387" x="2196.31" y="4888.59" type="traffic_light" tl="joinedS_53"/>
    <node id="246874388" x="2214.44" y="4888.07" type="traffic_light"/>
    <node id="246874702" x="2212.45" y="4871.45" type="traffic_light" tl="joinedS_66"/>
    <node id="246876728" x="2178.50" y="4603.90" type="traffic_light" tl="246876728"/>
    <node id="246876730" x="2196.64" y="4602.66" type="traffic_light"/>
    <node id="246877762" x="2195.43" y="4580.98" type="traffic_light" tl="joinedS_67"/>
    <node id="246878196" x="2187.16" y="4736.13" type="traffic_light" tl="246878196"/>
    <node id="246878197" x="2205.28" y="4735.61" type="traffic_light"/>
    <node id="246878284" x="2185.33" y="4705.79" type="traffic_light" tl="246878284"/>
    <node id="246878447" x="2202.75" y="4703.82" type="traffic_light" tl="joinedS_68"/>
    <node id="246878875" x="2168.56" y="4421.59" type="traffic_light"/>
    <node id="246878876" x="2185.80" y="4419.97" type="traffic_light" tl="joinedS_69"/>
    <node id="246879394" x="2147.73" y="4354.28" type="traffic_light" tl="joinedS_22"/>
    <node id="246879397" x="2120.85" y="4305.59" type="priority"/>
    <node id="246879398" x="1910.43" y="4323.44" type="dead_end"/>
    <node id="246881639" x="2121.46" y="3904.88" type="traffic_light" tl="246881639"/>
    <node id="246881640" x="2142.70" y="3902.26" type="traffic_light" tl="joinedS_70"/>
    <node id="246881975" x="2111.22" y="3824.13" type="traffic_light" tl="joinedS_71"/>
    <node id="246881976" x="2127.93" y="3820.70" type="traffic_light"/>
    <node id="246882084" x="2109.26" y="3804.60" type="traffic_light"/>
    <node id="246882085" x="2125.97" y="3801.90" type="traffic_light" tl="joinedS_72"/>
    <node id="246882133" x="2088.42" y="3659.22" type="traffic_light"/>
    <node id="246882134" x="2105.13" y="3656.51" type="traffic_light" tl="joinedS_73"/>
    <node id="246882203" x="2081.03" y="3607.85" type="traffic_light" tl="joinedS_74"/>
    <node id="246882204" x="2097.73" y="3605.15" type="traffic_light"/>
    <node id="246882230" x="2078.00" y="3586.79" type="traffic_light"/>
    <node id="246882231" x="2095.55" y="3584.63" type="traffic_light" tl="joinedS_74"/>
    <node id="246882949" x="2233.95" y="5278.92" type="traffic_light" tl="joinedS_75"/>
    <node id="246884508" x="2497.27" y="3545.64" type="priority"/>
    <node id="246885162" x="2503.55" y="3622.54" type="priority"/>
    <node id="246885877" x="2423.94" y="3718.17" type="priority"/>
    <node id="246887345" x="2269.79" y="3884.40" type="priority"/>
    <node id="246889362" x="2134.80" y="3974.87" type="priority"/>
    <node id="246889572" x="2131.67" y="3950.11" type="traffic_light" tl="joinedS_70"/>
    <node id="246890098" x="2079.70" y="3597.73" type="traffic_light"/>
    <node id="246890279" x="2090.46" y="3671.52" type="traffic_light" tl="joinedS_73"/>
    <node id="246890579" x="2170.29" y="4431.94" type="traffic_light" tl="joinedS_69"/>
    <node id="246891302" x="2047.09" y="3388.75" type="traffic_light" tl="joinedS_59"/>
    <node id="246891303" x="2066.69" y="3384.65" type="traffic_light"/>