<?xml version="1.0" encoding="UTF-8"?>

<!-- generated on Wed Oct 23 15:00:32 2013 by SUMO netconvert Version 0.17.1
<?xml version="1.0" encoding="UTF-8"?>

<configuration xmlns:xsi="http://www.w3.org/2001/XMLSchema-instance" xsi:noNamespaceSchemaLocation="http://sumo.sf.net/xsd/netconvertConfiguration.xsd">

    <input>
        <sumo-net-file value="manhattan.net.xml"/>
    </input>

    <output>
        <plain-output-prefix value="manhattan"/>
    </output>

    <processing>
        <no-turnarounds value="true"/>
        <offset.disable-normalization value="true"/>
    </processing>

</configuration>
-->

<tlLogics version="0.13" xmlns:xsi="http://www.w3.org/2001/XMLSchema-instance" xsi:noNamespaceSchemaLocation="http://sumo.sf.net/xsd/tllogic_file.xsd">
    <tlLogic id="-44063" type="static" programID="0" offset="0">
        <phase duration="31" state="GrrrGgGGG"/>
        <phase duration="4" state="yrrrygyyy"/>
        <phase duration="6" state="rrrrrGrrr"/>
        <phase duration="4" state="rrrrryrrr"/>
        <phase duration="31" state="GGGGrrrrr"/>
        <phase duration="4" state="yyyyrrrrr"/>
    </tlLogic>
    <tlLogic id="-44067" type="static" programID="0" offset="0">
        <phase duration="31" state="GGGrr"/>
        <phase duration="4" state="yyyrr"/>
        <phase duration="31" state="rrrGG"/>
        <phase duration="4" state="rrryy"/>
    </tlLogic>
    <tlLogic id="-44072" type="static" programID="0" offset="0">
        <phase duration="31" state="GGGrrr"/>
        <phase duration="4" state="yyyrrr"/>
        <phase duration="31" state="rrGGGG"/>
        <phase duration="4" state="rryyyy"/>
    </tlLogic>
    <tlLogic id="-44073" type="static" programID="0" offset="0">
        <phase duration="31" state="GGGrr"/>
        <phase duration="4" state="yyyrr"/>
        <phase duration="31" state="rrrGG"/>
        <phase duration="4" state="rrryy"/>
    </tlLogic>
    <tlLogic id="-44076" type="static" programID="0" offset="0">
        <phase duration="31" state="GGGrr"/>
        <phase duration="4" state="yyyrr"/>
        <phase duration="31" state="rrrGG"/>
        <phase duration="4" state="rrryy"/>
    </tlLogic>
    <tlLogic id="-44078" type="static" programID="0" offset="0">
        <phase duration="31" state="GGGrr"/>
        <phase duration="4" state="yyyrr"/>
        <phase duration="31" state="rrrGG"/>
        <phase duration="4" state="rrryy"/>
    </tlLogic>
    <tlLogic id="-44080" type="static" programID="0" offset="0">
        <phase duration="31" state="GGGrr"/>
        <phase duration="4" state="yyyrr"/>
        <phase duration="31" state="rrrGG"/>
        <phase duration="4" state="rrryy"/>
    </tlLogic>
    <tlLogic id="-44081" type="static" programID="0" offset="0">
        <phase duration="31" state="GrrrGgGGG"/>
        <phase duration="4" state="yrrrygyyy"/>
        <phase duration="6" state="rrrrrGrrr"/>
        <phase duration="4" state="rrrrryrrr"/>
        <phase duration="31" state="GGGGrrrrr"/>
        <phase duration="4" state="yyyyrrrrr"/>
    </tlLogic>
    <tlLogic id="1251612266" type="static" programID="0" offset="0">
        <phase duration="31" state="GGGG"/>
        <phase duration="4" state="yyyy"/>
    </tlLogic>
    <tlLogic id="1632878994" type="static" programID="0" offset="0">
        <phase duration="31" state="GGG"/>
        <phase duration="4" state="yyy"/>
        <phase duration="31" state="GGG"/>
        <phase duration="4" state="yyy"/>
    </tlLogic>
    <tlLogic id="1692433928" type="static" programID="0" offset="0">
        <phase duration="31" state="GgGGrrr"/>
        <phase duration="4" state="ygyyrrr"/>
        <phase duration="6" state="rGrrrrr"/>
        <phase duration="4" state="ryrrrrr"/>
        <phase duration="31" state="rrrrGGG"/>
        <phase duration="4" state="rrrryyy"/>
    </tlLogic>
    <tlLogic id="1692433932" type="static" programID="0" offset="0">
        <phase duration="31" state="GGrr"/>
        <phase duration="4" state="yyrr"/>
        <phase duration="31" state="rrGG"/>
        <phase duration="4" state="rryy"/>
    </tlLogic>
    <tlLogic id="1692433935" type="static" programID="0" offset="0">
        <phase duration="31" state="GGrr"/>
        <phase duration="4" state="yyrr"/>
        <phase duration="31" state="rrGG"/>
        <phase duration="4" state="rryy"/>
    </tlLogic>
    <tlLogic id="1692433940" type="static" programID="0" offset="0">
        <phase duration="31" state="GGrr"/>
        <phase duration="4" state="yyrr"/>
        <phase duration="31" state="rrGG"/>
        <phase duration="4" state="rryy"/>
    </tlLogic>
    <tlLogic id="1692433941" type="static" programID="0" offset="0">
        <phase duration="31" state="GGrr"/>
        <phase duration="4" state="yyrr"/>
        <phase duration="31" state="rrGG"/>
        <phase duration="4" state="rryy"/>
    </tlLogic>
    <tlLogic id="1692450029" type="static" programID="0" offset="0">
        <phase duration="31" state="GGGrGG"/>
        <phase duration="4" state="yyyryy"/>
        <phase duration="31" state="rrrGGG"/>
        <phase duration="4" state="rrryyy"/>
    </tlLogic>
    <tlLogic id="1773121034" type="static" programID="0" offset="0">
        <phase duration="31" state="Grr"/>
        <phase duration="4" state="yrr"/>
        <phase duration="31" state="rGG"/>
        <phase duration="4" state="ryy"/>
    </tlLogic>
    <tlLogic id="1773121036" type="static" programID="0" offset="0">
        <phase duration="31" state="GG"/>
        <phase duration="4" state="yy"/>
    </tlLogic>
    <tlLogic id="1919595912" type="static" programID="0" offset="0">
        <phase duration="31" state="Grr"/>
        <phase duration="4" state="yrr"/>
        <phase duration="31" state="rGG"/>
        <phase duration="4" state="ryy"/>
    </tlLogic>
    <tlLogic id="205008849" type="static" programID="0" offset="0">
        <phase duration="31" state="GGrrGG"/>
        <phase duration="4" state="yyrryy"/>
        <phase duration="31" state="rrGGrr"/>
        <phase duration="4" state="rryyrr"/>
    </tlLogic>
    <tlLogic id="2302133933" type="static" programID="0" offset="0">
        <phase duration="31" state="rrrGgGG"/>
        <phase duration="4" state="rrrygyy"/>
        <phase duration="6" state="rrrrGrr"/>
        <phase duration="4" state="rrrryrr"/>
        <phase duration="31" state="GGGrrrr"/>
        <phase duration="4" state="yyyrrrr"/>
    </tlLogic>
    <tlLogic id="2324482224" type="static" programID="0" offset="0">
        <phase duration="31" state="GGrr"/>
        <phase duration="4" state="yyrr"/>
        <phase duration="31" state="GrGG"/>
        <phase duration="4" state="yryy"/>
    </tlLogic>
    <tlLogic id="246652085" type="static" programID="0" offset="0">
        <phase duration="31" state="GGG"/>
        <phase duration="4" state="yyy"/>
    </tlLogic>
    <tlLogic id="246652650" type="static" programID="0" offset="0">
        <phase duration="31" state="GGG"/>
        <phase duration="4" state="yyy"/>
    </tlLogic>
    <tlLogic id="246857083" type="static" programID="0" offset="0">
        <phase duration="31" state="GGG"/>
        <phase duration="4" state="yyy"/>
    </tlLogic>
    <tlLogic id="246876728" type="static" programID="0" offset="0">
        <phase duration="31" state="GGG"/>
        <phase duration="4" state="yyy"/>
    </tlLogic>
    <tlLogic id="246878196" type="static" programID="0" offset="0">
        <phase duration="31" state="GGG"/>
        <phase duration="4" state="yyy"/>
    </tlLogic>
    <tlLogic id="246878284" type="static" programID="0" offset="0">
        <phase duration="31" state="GGG"/>
        <phase duration="4" state="yyy"/>
    </tlLogic>
    <tlLogic id="246881639" type="static" programID="0" offset="0">
        <phase duration="31" state="GGG"/>
        <phase duration="4" state="yyy"/>
    </tlLogic>
    <tlLogic id="246913431" type="static" programID="0" offset="0">
        <phase duration="31" state="Grrgggg"/>
        <phase duration="4" state="yrrgggg"/>
        <phase duration="6" state="rrrGGGG"/>
        <phase duration="4" state="rrryyyy"/>
        <phase duration="31" state="rGGrrrr"/>
        <phase duration="4" state="ryyrrrr"/>
    </tlLogic>
    <tlLogic id="274335455" type="static" programID="0" offset="0">
        <phase duration="31" state="GG"/>
        <phase duration="4" state="yy"/>
        <phase duration="31" state="GG"/>
        <phase duration="4" state="yy"/>
    </tlLogic>
    <tlLogic id="274681226" type="static" programID="0" offset="0">
        <phase duration="31" state="GG"/>
        <phase duration="4" state="yy"/>
    </tlLogic>
    <tlLogic id="279151954" type="static" programID="0" offset="0">
        <phase duration="31" state="GGgGrGG"/>
        <phase duration="4" state="yygyryy"/>
        <phase duration="6" state="rrGrrrr"/>
        <phase duration="4" state="rryrrrr"/>
        <phase duration="31" state="rrrGGGr"/>
        <phase duration="4" state="rrryyyr"/>
    </tlLogic>
    <tlLogic id="370705004" type="static" programID="0" offset="0">
        <phase duration="31" state="G"/>
        <phase duration="4" state="y"/>
    </tlLogic>
    <tlLogic id="370893395" type="static" programID="0" offset="0">
        <phase duration="31" state="GG"/>
        <phase duration="4" state="yy"/>
    </tlLogic>
    <tlLogic id="373882872" type="static" programID="0" offset="0">
        <phase duration="31" state="GGG"/>
        <phase duration="4" state="yyy"/>
    </tlLogic>
    <tlLogic id="373882982" type="static" programID="0" offset="0">
        <phase duration="31" state="GGG"/>
        <phase duration="4" state="yyy"/>
    </tlLogic>
    <tlLogic id="387184869" type="static" programID="0" offset="0">
        <phase duration="31" state="GGrG"/>
        <phase duration="4" state="yyry"/>
        <phase duration="31" state="rrGG"/>
        <phase duration="4" state="rryy"/>
    </tlLogic>
    <tlLogic id="390519635" type="static" programID="0" offset="0">
        <phase duration="31" state="ggGGGrr"/>
        <phase duration="4" state="ggyyyrr"/>
        <phase duration="6" state="GGrrrrr"/>
        <phase duration="4" state="yyrrrrr"/>
        <phase duration="31" state="rrGrrGG"/>
        <phase duration="4" state="rryrryy"/>
    </tlLogic>
    <tlLogic id="406048768" type="static" programID="0" offset="0">
        <phase duration="31" state="GGGGrrrr"/>
        <phase duration="4" state="yyyyrrrr"/>
        <phase duration="31" state="rrrrGGGG"/>
        <phase duration="4" state="rrrryyyy"/>
    </tlLogic>
    <tlLogic id="42421877" type="static" programID="0" offset="0">
        <phase duration="31" state="GGGrr"/>
        <phase duration="4" state="yyyrr"/>
        <phase duration="31" state="rrrGG"/>
        <phase duration="4" state="rrryy"/>
    </tlLogic>
    <tlLogic id="42421889" type="static" programID="0" offset="0">
        <phase duration="31" state="GGrrr"/>
        <phase duration="4" state="yyrrr"/>
        <phase duration="31" state="rrGGG"/>
        <phase duration="4" state="rryyy"/>
    </tlLogic>
    <tlLogic id="42422026" type="static" programID="0" offset="0">
        <phase duration="31" state="GgrrGG"/>
        <phase duration="4" state="ygrryy"/>
        <phase duration="6" state="rGrrrr"/>
        <phase duration="4" state="ryrrrr"/>
        <phase duration="31" state="rrGGGr"/>
        <phase duration="4" state="rryyyr"/>
    </tlLogic>
    <tlLogic id="42422038" type="static" programID="0" offset="0">
        <phase duration="31" state="GGrrrrGg"/>
        <phase duration="4" state="yyrrrryg"/>
        <phase duration="6" state="rrrrrrrG"/>
        <phase duration="4" state="rrrrrrry"/>
        <phase duration="31" state="rrGGGGrr"/>
        <phase duration="4" state="rryyyyrr"/>
    </tlLogic>
    <tlLogic id="42422042" type="static" programID="0" offset="0">
        <phase duration="31" state="GGGGrr"/>
        <phase duration="4" state="yyyyrr"/>
        <phase duration="31" state="GrrrGG"/>
        <phase duration="4" state="yrrryy"/>
    </tlLogic>
    <tlLogic id="42422899" type="static" programID="0" offset="0">
        <phase duration="31" state="GGrG"/>
        <phase duration="4" state="yyry"/>
        <phase duration="31" state="GrGG"/>
        <phase duration="4" state="yryy"/>
    </tlLogic>
    <tlLogic id="42423020" type="static" programID="0" offset="0">
        <phase duration="31" state="GG"/>
        <phase duration="4" state="yy"/>
    </tlLogic>
    <tlLogic id="42423295" type="static" programID="0" offset="0">
        <phase duration="31" state="GggGGGrr"/>
        <phase duration="4" state="yggyyyrr"/>
        <phase duration="6" state="rGGrrrrr"/>
        <phase duration="4" state="ryyrrrrr"/>
        <phase duration="31" state="GrrGrrGG"/>
        <phase duration="4" state="yrryrryy"/>
    </tlLogic>
    <tlLogic id="42423323" type="static" programID="0" offset="0">
        <phase duration="31" state="rrrrGGggggrrrrGGGggrrrr"/>
        <phase duration="4" state="rrrryyggggrrrryyyggrrrr"/>
        <phase duration="6" state="rrrrrrGGGGrrrrrrrGGrrrr"/>
        <phase duration="4" state="rrrrrryyyyrrrrrrryyrrrr"/>
        <phase duration="31" state="GGggrrrrrrGGGgrrrrrrrrr"/>
        <phase duration="4" state="yyggrrrrrryyygrrrrrrrrr"/>
        <phase duration="6" state="rrGGrrrrrrrrrGrrrrrrrrr"/>
        <phase duration="4" state="rryyrrrrrrrrryrrrrrrrrr"/>
        <phase duration="31" state="GrrrrrrrrrrrrrrrrrrGGGG"/>
        <phase duration="4" state="yrrrrrrrrrrrrrrrrrryyyy"/>
    </tlLogic>
    <tlLogic id="42423456" type="static" programID="0" offset="0">
        <phase duration="31" state="rrGgG"/>
        <phase duration="4" state="rrygy"/>
        <phase duration="6" state="rrrGr"/>
        <phase duration="4" state="rrryr"/>
        <phase duration="31" state="GGrrr"/>
        <phase duration="4" state="yyrrr"/>
    </tlLogic>
    <tlLogic id="42424408" type="static" programID="0" offset="0">
        <phase duration="31" state="GGrgg"/>
        <phase duration="4" state="yyrgg"/>
        <phase duration="6" state="rrrGG"/>
        <phase duration="4" state="rrryy"/>
        <phase duration="31" state="GrGrr"/>
        <phase duration="4" state="yryrr"/>
    </tlLogic>
    <tlLogic id="42424424" type="static" programID="0" offset="0">
        <phase duration="31" state="GGGr"/>
        <phase duration="4" state="yyyr"/>
        <phase duration="31" state="rGGG"/>
        <phase duration="4" state="ryyy"/>
    </tlLogic>
    <tlLogic id="42424610" type="static" programID="0" offset="0">
        <phase duration="31" state="GGGrrr"/>
        <phase duration="4" state="yyyrrr"/>
        <phase duration="31" state="GrrGGG"/>
        <phase duration="4" state="yrryyy"/>
    </tlLogic>
    <tlLogic id="42424619" type="static" programID="0" offset="0">
        <phase duration="31" state="GGGGggGrrr"/>
        <phase duration="4" state="yyyyggyrrr"/>
        <phase duration="6" state="rrrrGGrrrr"/>
        <phase duration="4" state="rrrryyrrrr"/>
        <phase duration="31" state="rrrGrrrGGG"/>
        <phase duration="4" state="rrryrrryyy"/>
    </tlLogic>
    <tlLogic id="42424864" type="static" programID="0" offset="0">
        <phase duration="31" state="rrrGggGG"/>
        <phase duration="4" state="rrryggyy"/>
        <phase duration="6" state="rrrrGGrr"/>
        <phase duration="4" state="rrrryyrr"/>
        <phase duration="31" state="GGGrrrrr"/>
        <phase duration="4" state="yyyrrrrr"/>
    </tlLogic>
    <tlLogic id="42425955" type="static" programID="0" offset="0">
        <phase duration="31" state="GGGr"/>
        <phase duration="4" state="yyyr"/>
        <phase duration="31" state="rrGG"/>
        <phase duration="4" state="rryy"/>
    </tlLogic>
    <tlLogic id="42426747" type="static" programID="0" offset="0">
        <phase duration="31" state="GGGgGrr"/>
        <phase duration="4" state="yyygyrr"/>
        <phase duration="6" state="rrrGrrr"/>
        <phase duration="4" state="rrryrrr"/>
        <phase duration="31" state="rrGrrGG"/>
        <phase duration="4" state="rryrryy"/>
    </tlLogic>
    <tlLogic id="42427234" type="static" programID="0" offset="0">
        <phase duration="31" state="GGgrrrrGG"/>
        <phase duration="4" state="yygrrrryy"/>
        <phase duration="6" state="rrGrrrrrr"/>
        <phase duration="4" state="rryrrrrrr"/>
        <phase duration="31" state="rrrggGGrr"/>
        <phase duration="4" state="rrrggyyrr"/>
        <phase duration="6" state="rrrGGrrrr"/>
        <phase duration="4" state="rrryyrrrr"/>
    </tlLogic>
    <tlLogic id="42427275" type="static" programID="0" offset="0">
        <phase duration="31" state="GGGgGr"/>
        <phase duration="4" state="yyygyr"/>
        <phase duration="6" state="rrrGrr"/>
        <phase duration="4" state="rrryrr"/>
        <phase duration="31" state="GrGrGG"/>
        <phase duration="4" state="yryryy"/>
    </tlLogic>
    <tlLogic id="42427278" type="static" programID="0" offset="0">
        <phase duration="31" state="GGGGGr"/>
        <phase duration="4" state="yyyyyr"/>
        <phase duration="31" state="rrrGGG"/>
        <phase duration="4" state="rrryyy"/>
    </tlLogic>
    <tlLogic id="42427290" type="static" programID="0" offset="0">
        <phase duration="31" state="Grr"/>
        <phase duration="4" state="yrr"/>
        <phase duration="31" state="rGG"/>
        <phase duration="4" state="ryy"/>
    </tlLogic>
    <tlLogic id="42427300" type="static" programID="0" offset="0">
        <phase duration="31" state="GGrrrGg"/>
        <phase duration="4" state="yyrrryg"/>
        <phase duration="6" state="rrrrrrG"/>
        <phase duration="4" state="rrrrrry"/>
        <phase duration="31" state="rrGGGrr"/>
        <phase duration="4" state="rryyyrr"/>
    </tlLogic>
    <tlLogic id="42427305" type="static" programID="0" offset="0">
        <phase duration="31" state="GGrr"/>
        <phase duration="4" state="yyrr"/>
        <phase duration="31" state="GrGG"/>
        <phase duration="4" state="yryy"/>
    </tlLogic>
    <tlLogic id="42427307" type="static" programID="0" offset="0">
        <phase duration="31" state="GGrr"/>
        <phase duration="4" state="yyrr"/>
        <phase duration="31" state="GrGG"/>
        <phase duration="4" state="yryy"/>
    </tlLogic>
    <tlLogic id="42427311" type="static" programID="0" offset="0">
        <phase duration="31" state="GGrG"/>
        <phase duration="4" state="yyry"/>
        <phase duration="31" state="GrGG"/>
        <phase duration="4" state="yryy"/>
    </tlLogic>
    <tlLogic id="42427316" type="static" programID="0" offset="0">
        <phase duration="31" state="GGGrrrGGg"/>
        <phase duration="4" state="yyyrrryyg"/>
        <phase duration="6" state="rrrrrrrrG"/>
        <phase duration="4" state="rrrrrrrry"/>
        <phase duration="31" state="rrrGGGrrr"/>
        <phase duration="4" state="rrryyyrrr"/>
    </tlLogic>
    <tlLogic id="42427319" type="static" programID="0" offset="0">
        <phase duration="31" state="Grr"/>
        <phase duration="4" state="yrr"/>
        <phase duration="31" state="rGG"/>
        <phase duration="4" state="ryy"/>
    </tlLogic>
    <tlLogic id="42427324" type="static" programID="0" offset="0">
        <phase duration="31" state="GGrG"/>
        <phase duration="4" state="yyry"/>
        <phase duration="31" state="GrGG"/>
        <phase duration="4" state="yryy"/>
    </tlLogic>
    <tlLogic id="42427327" type="static" programID="0" offset="0">
        <phase duration="31" state="GGrG"/>
        <phase duration="4" state="yyry"/>
        <phase duration="31" state="GrGG"/>
        <phase duration="4" state="yryy"/>
    </tlLogic>
    <tlLogic id="42427335" type="static" programID="0" offset="0">
        <phase duration="31" state="GGgGrrGGg"/>
        <phase duration="4" state="yygyrryyg"/>
        <phase duration="6" state="rrGrrrrrG"/>
        <phase duration="4" state="rryrrrrry"/>
        <phase duration="31" state="rrrGGGGrr"/>
        <phase duration="4" state="rrryyyyrr"/>
    </tlLogic>
    <tlLogic id="42427346" type="static" programID="0" offset="0">
        <phase duration="31" state="GG"/>
        <phase duration="4" state="yy"/>
    </tlLogic>
    <tlLogic id="42427352" type="static" programID="0" offset="0">
        <phase duration="31" state="GrrGg"/>
        <phase duration="4" state="yrryg"/>
        <phase duration="6" state="rrrrG"/>
        <phase duration="4" state="rrrry"/>
        <phase duration="31" state="rGGrr"/>
        <phase duration="4" state="ryyrr"/>
    </tlLogic>
    <tlLogic id="42427369" type="static" programID="0" offset="0">
        <phase duration="31" state="GGrG"/>
        <phase duration="4" state="yyry"/>
        <phase duration="31" state="rrGG"/>
        <phase duration="4" state="rryy"/>
    </tlLogic>
    <tlLogic id="42427371" type="static" programID="0" offset="0">
        <phase duration="31" state="GGrG"/>
        <phase duration="4" state="yyry"/>
        <phase duration="31" state="rrGG"/>
        <phase duration="4" state="rryy"/>
    </tlLogic>
    <tlLogic id="42427374" type="static" programID="0" offset="0">
        <phase duration="31" state="GGGr"/>
        <phase duration="4" state="yyyr"/>
        <phase duration="31" state="rrGG"/>
        <phase duration="4" state="rryy"/>
    </tlLogic>
    <tlLogic id="42427381" type="static" programID="0" offset="0">
        <phase duration="31" state="GGrG"/>
        <phase duration="4" state="yyry"/>
        <phase duration="31" state="rrGG"/>
        <phase duration="4" state="rryy"/>
    </tlLogic>
    <tlLogic id="42427390" type="static" programID="0" offset="0">
        <phase duration="31" state="G"/>
        <phase duration="4" state="y"/>
    </tlLogic>
    <tlLogic id="42427423" type="static" programID="0" offset="0">
        <phase duration="31" state="GGGrr"/>
        <phase duration="4" state="yyyrr"/>
        <phase duration="31" state="rrrGG"/>
        <phase duration="4" state="rrryy"/>
    </tlLogic>
    <tlLogic id="42427426" type="static" programID="0" offset="0">
        <phase duration="31" state="GGGrr"/>
        <phase duration="4" state="yyyrr"/>
        <phase duration="31" state="rrrGG"/>
        <phase duration="4" state="rrryy"/>
    </tlLogic>
    <tlLogic id="42427427" type="static" programID="0" offset="0">
        <phase duration="31" state="GGGrr"/>
        <phase duration="4" state="yyyrr"/>
        <phase duration="31" state="rrrGG"/>
        <phase duration="4" state="rrryy"/>
    </tlLogic>
    <tlLogic id="42427477" type="static" programID="0" offset="0">
        <phase duration="31" state="GGGrr"/>
        <phase duration="4" state="yyyrr"/>
        <phase duration="31" state="rrrGG"/>
        <phase duration="4" state="rrryy"/>
    </tlLogic>
    <tlLogic id="42427483" type="static" programID="0" offset="0">
        <phase duration="31" state="G"/>
        <phase duration="4" state="y"/>
    </tlLogic>
    <tlLogic id="42427744" type="static" programID="0" offset="0">
        <phase duration="31" state="GGgrrrGGg"/>
        <phase duration="4" state="yygrrryyg"/>
        <phase duration="6" state="rrGrrrrrG"/>
        <phase duration="4" state="rryrrrrry"/>
        <phase duration="31" state="rrrGGGGrr"/>
        <phase duration="4" state="rrryyyyrr"/>
    </tlLogic>
    <tlLogic id="42427786" type="static" programID="0" offset="0">
        <phase duration="31" state="GGr"/>
        <phase duration="4" state="yyr"/>
        <phase duration="31" state="rrG"/>
        <phase duration="4" state="rry"/>
    </tlLogic>
    <tlLogic id="42427787" type="static" programID="0" offset="0">
        <phase duration="31" state="GG"/>
        <phase duration="4" state="yy"/>
    </tlLogic>
    <tlLogic id="42427797" type="static" programID="0" offset="0">
        <phase duration="31" state="GG"/>
        <phase duration="4" state="yy"/>
    </tlLogic>
    <tlLogic id="42427805" type="static" programID="0" offset="0">
        <phase duration="31" state="GG"/>
        <phase duration="4" state="yy"/>
    </tlLogic>
    <tlLogic id="42427812" type="static" programID="0" offset="0">
        <phase duration="31" state="GG"/>
        <phase duration="4" state="yy"/>
    </tlLogic>
    <tlLogic id="42427817" type="static" programID="0" offset="0">
        <phase duration="31" state="GG"/>
        <phase duration="4" state="yy"/>
    </tlLogic>
    <tlLogic id="42428170" type="static" programID="0" offset="0">
        <phase duration="31" state="GGrG"/>
        <phase duration="4" state="yyry"/>
        <phase duration="31" state="rrGG"/>
        <phase duration="4" state="rryy"/>
    </tlLogic>
    <tlLogic id="42428174" type="static" programID="0" offset="0">
        <phase duration="31" state="GGGr"/>
        <phase duration="4" state="yyyr"/>
        <phase duration="31" state="rrGG"/>
        <phase duration="4" state="rryy"/>
    </tlLogic>
    <tlLogic id="42428179" type="static" programID="0" offset="0">
        <phase duration="31" state="GGrG"/>
        <phase duration="4" state="yyry"/>
        <phase duration="31" state="rrGG"/>
        <phase duration="4" state="rryy"/>
    </tlLogic>
    <tlLogic id="42428183" type="static" programID="0" offset="0">
        <phase duration="31" state="GGGr"/>
        <phase duration="4" state="yyyr"/>
        <phase duration="31" state="rrGG"/>
        <phase duration="4" state="rryy"/>
    </tlLogic>
    <tlLogic id="42428192" type="static" programID="0" offset="0">
        <phase duration="31" state="GGrG"/>
        <phase duration="4" state="yyry"/>
        <phase duration="31" state="rrGG"/>
        <phase duration="4" state="rryy"/>
    </tlLogic>
    <tlLogic id="42428198" type="static" programID="0" offset="0">
        <phase duration="31" state="GGGr"/>
        <phase duration="4" state="yyyr"/>
        <phase duration="31" state="rrGG"/>
        <phase duration="4" state="rryy"/>
    </tlLogic>
    <tlLogic id="42428201" type="static" programID="0" offset="0">
        <phase duration="31" state="rrGGgGGG"/>
        <phase duration="4" state="rryygyyy"/>
        <phase duration="6" state="rrrrGrrr"/>
        <phase duration="4" state="rrrryrrr"/>
        <phase duration="31" state="GGrrrrrr"/>
        <phase duration="4" state="yyrrrrrr"/>
    </tlLogic>
    <tlLogic id="42428206" type="static" programID="0" offset="0">
        <phase duration="31" state="Grr"/>
        <phase duration="4" state="yrr"/>
        <phase duration="31" state="rGG"/>
        <phase duration="4" state="ryy"/>
    </tlLogic>
    <tlLogic id="42428212" type="static" programID="0" offset="0">
        <phase duration="31" state="GGGrr"/>
        <phase duration="4" state="yyyrr"/>
        <phase duration="31" state="rrrGG"/>
        <phase duration="4" state="rrryy"/>
    </tlLogic>
    <tlLogic id="42428216" type="static" programID="0" offset="0">
        <phase duration="31" state="GGGrr"/>
        <phase duration="4" state="yyyrr"/>
        <phase duration="31" state="rrGGG"/>
        <phase duration="4" state="rryyy"/>
    </tlLogic>
    <tlLogic id="42428220" type="static" programID="0" offset="0">
        <phase duration="31" state="GGGrr"/>
        <phase duration="4" state="yyyrr"/>
        <phase duration="31" state="rrrGG"/>
        <phase duration="4" state="rrryy"/>
    </tlLogic>
    <tlLogic id="42428223" type="static" programID="0" offset="0">
        <phase duration="31" state="GGGrr"/>
        <phase duration="4" state="yyyrr"/>
        <phase duration="31" state="rrrGG"/>
        <phase duration="4" state="rrryy"/>
    </tlLogic>
    <tlLogic id="42428227" type="static" programID="0" offset="0">
        <phase duration="31" state="GG"/>
        <phase duration="4" state="yy"/>
    </tlLogic>
    <tlLogic id="42428345" type="static" programID="0" offset="0">
        <phase duration="31" state="GGGrr"/>
        <phase duration="4" state="yyyrr"/>
        <phase duration="31" state="rrrGG"/>
        <phase duration="4" state="rrryy"/>
    </tlLogic>
    <tlLogic id="42428365" type="static" programID="0" offset="0">
        <phase duration="31" state="GGGG"/>
        <phase duration="4" state="yyyy"/>
    </tlLogic>
    <tlLogic id="42428366" type="static" programID="0" offset="0">
        <phase duration="31" state="GGGr"/>
        <phase duration="4" state="yyyr"/>
        <phase duration="31" state="rrGG"/>
        <phase duration="4" state="rryy"/>
    </tlLogic>
    <tlLogic id="42428368" type="static" programID="0" offset="0">
        <phase duration="31" state="GGr"/>
        <phase duration="4" state="yyr"/>
        <phase duration="31" state="rrG"/>
        <phase duration="4" state="rry"/>
    </tlLogic>
    <tlLogic id="42428370" type="static" programID="0" offset="0">
        <phase duration="31" state="GG"/>
        <phase duration="4" state="yy"/>
    </tlLogic>
    <tlLogic id="42428371" type="static" programID="0" offset="0">
        <phase duration="31" state="GGr"/>
        <phase duration="4" state="yyr"/>
        <phase duration="31" state="rrG"/>
        <phase duration="4" state="rry"/>
    </tlLogic>
    <tlLogic id="42428374" type="static" programID="0" offset="0">
        <phase duration="31" state="GGGrr"/>
        <phase duration="4" state="yyyrr"/>
        <phase duration="31" state="rrrGG"/>
        <phase duration="4" state="rrryy"/>
    </tlLogic>
    <tlLogic id="42428376" type="static" programID="0" offset="0">
        <phase duration="31" state="GGGrr"/>
        <phase duration="4" state="yyyrr"/>
        <phase duration="31" state="rrrGG"/>
        <phase duration="4" state="rrryy"/>
    </tlLogic>
    <tlLogic id="42428385" type="static" programID="0" offset="0">
        <phase duration="31" state="GGGrr"/>
        <phase duration="4" state="yyyrr"/>
        <phase duration="31" state="rrrGG"/>
        <phase duration="4" state="rrryy"/>
    </tlLogic>