<?xml version="1.0" encoding="UTF-8"?>

<!-- generated on Wed Oct 23 15:00:32 2013 by SUMO netconvert Version 0.17.1
<?xml version="1.0" encoding="UTF-8"?>

<configuration xmlns:xsi="http://www.w3.org/2001/XMLSchema-instance" xsi:noNamespaceSchemaLocation="http://sumo.sf.net/xsd/netconvertConfiguration.xsd">

    <input>
        <sumo-net-file value="manhattan.net.xml"/>
    </input>

    <output>
        <plain-output-prefix value="manhattan"/>
    </output>

    <processing>
        <no-turnarounds value="true"/>
        <offset.disable-normalization value="true"/>
    </processing>

</configuration>
-->

<edges version="0.13" xmlns:xsi="http://www.w3.org/2001/XMLSchema-instance" xsi:noNamespaceSchemaLocation="http://sumo.sf.net/xsd/edges_file.xsd">
    <edge id="-106877213" from="1228990840" to="1228990842" priority="7" type="highway.service" numLanes="1" speed="13.89"/>
    <edge id="-106877214" from="1228990841" to="1228990851" priority="7" type="highway.service" numLanes="1" speed="13.89"/>
    <edge id="-106877215" from="1228990855" to="1228990840" priority="7" type="highway.service" numLanes="1" speed="13.89"/>
    <edge id="-106877217#0" from="1228990844" to="1228990857" priority="7" type="highway.service" numLanes="1" speed="13.89"/>
    <edge id="-106877217#1" from="1228990841" to="1228990844" priority="7" type="highway.service" numLanes="1" speed="13.89"/>
    <edge id="-106877218#0" from="1228990844" to="42429811" priority="7" type="highway.service" numLanes="1" speed="13.89"/>
    <edge id="-106877218#1" from="1228990853" to="1228990844" priority="7" type="highway.service" numLanes="1" speed="13.89"/>
    <edge id="-106877219#0" from="1228990853" to="1228990851" priority="7" type="highway.service" numLanes="1" speed="13.89"/>
    <edge id="-106877219#1" from="1228990861" to="1228990853" priority="7" type="highway.service" numLanes="1" speed="13.89"/>
    <edge id="-106877221" from="1228990842" to="1228990862" priority="7" type="highway.service" numLanes="1" speed="13.89"/>
    <edge id="-106877222#0" from="1228990855" to="42429809" priority="7" type="highway.service" numLanes="1" speed="13.89"/>
    <edge id="-106877222#1" from="1228990862" to="1228990855" priority="7" type="highway.service" numLanes="1" speed="13.89"/>
    <edge id="-106877223#0" from="1228990861" to="1228990857" priority="7" type="highway.service" numLanes="1" speed="13.89"/>
    <edge id="-106877223#1" from="2359921665" to="1228990861" priority="7" type="highway.service" numLanes="1" speed="13.89"/>
    <edge id="-110777345#0" from="42437990" to="42437967" priority="4" type="highway.secondary" numLanes="2" speed="13.89" shape="3711.52,2816.16 3722.88,2811.48 3733.19,2807.30"/>
    <edge id="-110777345#1" from="42429637" to="42437990" priority="4" type="highway.secondary" numLanes="2" speed="13.89"/>
    <edge id="-110777345#2" from="42440798" to="42429637" priority="4" type="highway.secondary" numLanes="2" speed="13.89"/>
    <edge id="-116672333#0" from="42430589" to="246580758" priority="4" type="highway.secondary" numLanes="2" speed="13.89"/>
    <edge id="-116672333#1" from="42437914" to="42430589" priority="4" type="highway.secondary" numLanes="2" speed="13.89"/>
    <edge id="-116672333#2" from="42437909" to="42437914" priority="4" type="highway.secondary" numLanes="2" speed="13.89"/>
    <edge id="-116672333#3" from="1261680453" to="42437909" priority="4" type="highway.secondary" numLanes="2" speed="13.89"/>
    <edge id="-116672333#4" from="42435624" to="1261680453" priority="4" type="highway.secondary" numLanes="2" speed="13.89"/>
    <edge id="-116672333#5" from="42437890" to="42435624" priority="4" type="highway.secondary" numLanes="2" speed="13.89"/>
    <edge id="-116672333#6" from="42430271" to="42437890" priority="4" type="highway.secondary" numLanes="2" speed="13.89"/>
    <edge id="-116672333#7" from="42437881" to="42430271" priority="4" type="highway.secondary" numLanes="2" speed="13.89"/>
    <edge id="-116672631" from="246879394" to="246857084" priority="7" type="highway.service" numLanes="1" speed="13.89"/>
    <edge id="-125524912#0" from="42433539" to="42433537" priority="4" type="highway.secondary" numLanes="2" speed="13.89"/>
    <edge id="-125524912#1" from="42433542" to="42433539" priority="4" type="highway.secondary" numLanes="2" speed="13.89"/>
    <edge id="-125524912#2" from="42433543" to="42433542" priority="4" type="highway.secondary" numLanes="2" speed="13.89"/>
    <edge id="-125525165#0" from="42437775" to="42432000" priority="7" type="highway.residential" numLanes="1" speed="13.89"/>
    <edge id="-125525165#1" from="42427744" to="42437775" priority="7" type="highway.residential" numLanes="1" speed="13.89"/>
    <edge id="-125525171#0" from="42437763" to="42437760" priority="7" type="highway.residential" numLanes="1" speed="13.89"/>
    <edge id="-125525171#1" from="42437768" to="42437763" priority="7" type="highway.residential" numLanes="1" speed="13.89"/>
    <edge id="-125525171#2" from="42437770" to="42437768" priority="7" type="highway.residential" numLanes="1" speed="13.89"/>
    <edge id="-125525171#3" from="42437773" to="42437770" priority="7" type="highway.residential" numLanes="1" speed="13.89"/>
    <edge id="-125525171#4" from="42432000" to="42437773" priority="7" type="highway.residential" numLanes="1" speed="13.89"/>
    <edge id="-126573396" from="246648655" to="1402823158" priority="4" type="highway.unclassified" numLanes="1" speed="13.89"/>
    <edge id="-127690685" from="42431617" to="42431614" priority="4" type="highway.secondary" numLanes="2" speed="13.89"/>
    <edge id="-127690687#0" from="246858449" to="246866830" priority="7" type="highway.residential" numLanes="1" speed="13.89"/>
    <edge id="-127690687#1" from="246894185" to="246858449" priority="7" type="highway.residential" numLanes="1" speed="13.89"/>
    <edge id="-127691874#0" from="497412672" to="42427744" priority="7" type="highway.residential" numLanes="1" speed="13.89"/>
    <edge id="-127691874#1" from="42437786" to="497412672" priority="7" type="highway.residential" numLanes="1" speed="13.89"/>
    <edge id="-127691875" from="42424424" to="42427275" priority="4" type="highway.secondary" numLanes="2" speed="13.89"/>
    <edge id="-134484064" from="1478572232" to="1478572209" priority="7" type="highway.service" numLanes="1" speed="13.89" shape="5393.03,5803.76 5401.06,5802.22 5400.21,5777.58 5387.17,5686.01 5373.62,5678.08"/>
    <edge id="-140391514#0" from="1538237359" to="1538237300" priority="7" type="highway.service" numLanes="1" speed="13.89"/>
    <edge id="-140391514#1" from="1538237508" to="1538237359" priority="7" type="highway.service" numLanes="1" speed="13.89"/>
    <edge id="-140391516#0" from="1538237310" to="1538237359" priority="7" type="highway.service" numLanes="1" speed="13.89"/>
    <edge id="-140391516#1" from="1538237325" to="1538237310" priority="7" type="highway.service" numLanes="1" speed="13.89"/>
    <edge id="-140391518" from="1538237310" to="1538237463" priority="7" type="highway.service" numLanes="1" speed="13.89"/>
    <edge id="-140391522#0" from="1538237434" to="42428391" priority="7" type="highway.residential" numLanes="1" speed="13.89" shape="2473.70,2297.88 2380.11,2370.11 2363.01,2385.47"/>
    <edge id="-140391522#1" from="1538237248" to="1538237434" priority="7" type="highway.residential" numLanes="1" speed="13.89" shape="2582.98,2224.75 2476.57,2293.76 2473.70,2297.88"/>
    <edge id="-140391522#2" from="42430848" to="1538237248" priority="7" type="highway.residential" numLanes="1" speed="13.89" shape="2664.07,2168.51 2656.01,2175.49 2582.98,2224.75"/>
    <edge id="-144183267#0" from="1577583885" to="1577583860" priority="7" type="highway.service" numLanes="1" speed="13.89" shape="5355.44,5221.37 5355.65,5223.66 5356.66,5225.78 5358.31,5227.39 5360.35,5228.33 5362.48,5228.53 5364.60,5228.05 5366.44,5226.92 5368.16,5224.56 5368.69,5222.45 5368.64,5220.97 5367.95,5218.85 5366.55,5217.05 5364.76,5215.87 5362.42,5215.31 5360.00,5215.64 5358.85,5216.12 5357.71,5216.92 5356.26,5218.70"/>
    <edge id="-144183267#1" from="1577583860" to="1577583885" priority="7" type="highway.service" numLanes="1" speed="13.89"/>
    <edge id="-144183268" from="1577583860" to="589100164" priority="7" type="highway.service" numLanes="1" speed="13.89"/>
    <edge id="-144922117#0" from="1991891670" to="1584024995" priority="7" type="highway.residential" numLanes="1" speed="13.89" shape="2666.20,2110.81 2664.18,2115.77 2660.44,2125.88 2657.84,2135.34 2657.03,2146.84 2657.87,2152.72 2659.37,2160.19 2661.39,2165.65"/>
    <edge id="-144922117#1" from="42440277" to="1991891670" priority="7" type="highway.residential" numLanes="1" speed="13.89"/>
    <edge id="-157012388" from="1692433930" to="1692433929" priority="7" type="highway.service" numLanes="1" speed="13.89"/>
    <edge id="-157012389" from="1692433925" to="1692433926" priority="7" type="highway.service" numLanes="1" speed="13.89"/>
    <edge id="-157012390" from="42440548" to="1692433930" priority="7" type="highway.service" numLanes="1" speed="13.89"/>
    <edge id="-157012391" from="1692433933" to="1692433934" priority="7" type="highway.service" numLanes="1" speed="13.89"/>
    <edge id="-157012392" from="1692433923" to="1692433922" priority="7" type="highway.service" numLanes="1" speed="13.89"/>
    <edge id="-157012393" from="1692433924" to="1692433925" priority="7" type="highway.service" numLanes="1" speed="13.89"/>
    <edge id="-157012394" from="1692433922" to="1692433921" priority="7" type="highway.service" numLanes="1" speed="13.89"/>
    <edge id="-157012395" from="1692433934" to="1692433936" priority="7" type="highway.service" numLanes="1" speed="13.89"/>
    <edge id="-157012396" from="1692433929" to="1692433923" priority="7" type="highway.service" numLanes="1" speed="13.89"/>
    <edge id="-157012397" from="1692433926" to="1692433933" priority="7" type="highway.service" numLanes="1" speed="13.89" shape="3246.84,4233.93 3278.76,4285.08 3296.10,4312.04"/>
    <edge id="-157405685" from="42422026" to="889298452" priority="7" type="highway.service" numLanes="1" speed="13.89" shape="1757.47,2393.52 1759.99,2401.54 1767.51,2425.44"/>
    <edge id="-160801658" from="1728266858" to="1728266910" priority="7" type="highway.service" numLanes="1" speed="13.89" shape="5372.25,5158.58 5375.13,5134.70 5352.56,5132.45 5261.37,5182.19 5256.45,5191.50"/>
    <edge id="-160801660#0" from="1728266957" to="1728266963" priority="7" type="highway.service" numLanes="1" speed="13.89"/>
    <edge id="-160801660#1" from="1728266928" to="1728266957" priority="7" type="highway.service" numLanes="1" speed="13.89" shape="5234.00,5212.56 5227.90,5221.45 5223.88,5223.64"/>
    <edge id="-160801660#2" from="1728266910" to="1728266928" priority="7" type="highway.service" numLanes="1" speed="13.89" shape="5256.45,5191.50 5260.56,5199.52 5234.00,5212.56"/>
    <edge id="-160801660#3" from="1728266928" to="1728266910" priority="7" type="highway.service" numLanes="1" speed="13.89" shape="5234.00,5212.56 5230.30,5204.34 5256.45,5191.50"/>
    <edge id="-160942006" from="1729086998" to="1729087000" priority="7" type="highway.service" numLanes="1" speed="13.89" shape="5137.18,5999.03 5127.04,5980.71 5163.17,5961.25 5153.72,5944.85 5062.45,5994.34 5070.94,6010.73 5107.38,5991.70 5118.20,6009.83"/>
    <edge id="-161026131" from="1730318428" to="1730318397" priority="7" type="highway.service" numLanes="1" speed="13.89" shape="3087.26,2523.53 3079.37,2549.13 3037.60,2536.70"/>
    <edge id="-161026133#0" from="1730318428" to="1730318401" priority="7" type="highway.service" numLanes="1" speed="13.89" shape="3087.26,2523.53 3126.66,2536.72 3131.83,2540.84 3146.00,2569.21 3096.08,2554.06"/>
    <edge id="-161026133#1" from="1730318417" to="1730318428" priority="7" type="highway.service" numLanes="1" speed="13.89" shape="3020.32,2479.98 3033.48,2480.68 3040.48,2484.04 3046.27,2492.24 3054.50,2506.55 3062.12,2513.63 3072.47,2518.58 3087.26,2523.53"/>
    <edge id="-163806028#0" from="1754823408" to="1754823149" priority="7" type="highway.service" numLanes="1" speed="13.89"/>
    <edge id="-163806028#1" from="588455870" to="1754823408" priority="7" type="highway.service" numLanes="1" speed="13.89" shape="3251.91,2245.30 3200.46,2237.81 3190.56,2238.29"/>
    <edge id="-165731797#0" from="278609934" to="42423323" priority="4" type="highway.primary" numLanes="2" speed="13.89"/>
    <edge id="-165731797#1" from="42422283" to="278609934" priority="4" type="highway.primary" numLanes="2" speed="13.89"/>
    <edge id="-165777195#0" from="42432184" to="42429752" priority="4" type="highway.primary" numLanes="2" speed="13.89" shape="3557.94,3294.86 3579.62,3369.27 3586.42,3390.62"/>
    <edge id="-165777195#1" from="42437589" to="42432184" priority="4" type="highway.primary" numLanes="2" speed="13.89"/>
    <edge id="-165777195#2" from="42437580" to="42437589" priority="4" type="highway.primary" numLanes="2" speed="13.89"/>
    <edge id="-165777195#3" from="205008849" to="42437580" priority="4" type="highway.primary" numLanes="2" speed="13.89"/>
    <edge id="-165777195#4" from="2481865394" to="205008849" priority="4" type="highway.primary" numLanes="2" speed="13.89"/>
    <edge id="-165777195#5" from="588455695" to="2481865394" priority="4" type="highway.primary" numLanes="2" speed="13.89"/>
    <edge id="-165781912#0" from="1773121037" to="42444825" priority="4" type="highway.primary" numLanes="2" speed="13.89"/>
    <edge id="-165781912#1" from="42434196" to="1773121037" priority="4" type="highway.primary" numLanes="2" speed="13.89"/>
    <edge id="-165781912#2" from="42434140" to="42434196" priority="4" type="highway.primary" numLanes="2" speed="13.89"/>
    <edge id="-166038132#0" from="42445603" to="1775260897" priority="4" type="highway.secondary" numLanes="2" speed="13.89"/>
    <edge id="-166038132#1" from="42452067" to="42445603" priority="4" type="highway.secondary" numLanes="2" speed="13.89"/>
    <edge id="-166038132#2" from="42432085" to="42452067" priority="4" type="highway.secondary" numLanes="2" speed="13.89"/>
    <edge id="-166038132#3" from="42429754" to="42432085" priority="4" type="highway.secondary" numLanes="2" speed="13.89"/>
    <edge id="-183010767" from="42435435" to="-44068" priority="7" type="highway.residential" numLanes="1" speed="13.89"/>
    <edge id="-188494945" from="1991212114" to="1991212132" priority="7" type="highway.service" numLanes="1" speed="13.89" shape="5355.79,4109.36 5342.74,4107.99 5305.73,4127.85 5292.68,4134.74"/>
    <edge id="-194923755#0" from="42451018" to="42439191" priority="4" type="highway.primary" numLanes="2" speed="13.89"/>
    <edge id="-194923755#1" from="589100232" to="42451018" priority="4" type="highway.primary" numLanes="2" speed="13.89"/>
    <edge id="-194923760" from="42431635" to="42431630" priority="7" type="highway.residential" numLanes="1" speed="13.89"/>
    <edge id="-194923762" from="274342024" to="42430942" priority="7" type="highway.residential" numLanes="1" speed="13.89"/>
    <edge id="-194923763#0" from="42421828" to="42430938" priority="7" type="highway.residential" numLanes="1" speed="13.89"/>
    <edge id="-194923763#1" from="42430942" to="42421828" priority="7" type="highway.residential" numLanes="1" speed="13.89"/>
    <edge id="-194923764#0" from="42439001" to="42439006" priority="4" type="highway.primary" numLanes="2" speed="13.89"/>
    <edge id="-194923764#1" from="1989931124" to="42439001" priority="4" type="highway.primary" numLanes="2" speed="13.89"/>
    <edge id="-194923764#2" from="42440754" to="1989931124" priority="4" type="highway.primary" numLanes="2" speed="13.89"/>
    <edge id="-194923765" from="589100557" to="42448714" priority="4" type="highway.secondary" numLanes="2" speed="13.89"/>
    <edge id="-194923768#0" from="42432099" to="42452084" priority="7" type="highway.residential" numLanes="1" speed="13.89"/>
    <edge id="-194923768#1" from="486867513" to="42432099" priority="7" type="highway.residential" numLanes="1" speed="13.89"/>
    <edge id="-194923769" from="42423295" to="42437786" priority="4" type="highway.primary" numLanes="2" speed="13.89"/>
    <edge id="-194923770" from="42451593" to="42452084" priority="4" type="highway.secondary" numLanes="2" speed="13.89"/>
    <edge id="-194923773#0" from="592405108" to="42445630" priority="4" type="highway.primary" numLanes="2" speed="13.89"/>
    <edge id="-194923773#1" from="42427742" to="592405108" priority="4" type="highway.primary" numLanes="2" speed="13.89"/>
    <edge id="-194923774#0" from="42452117" to="42427742" priority="4" type="highway.primary" numLanes="2" speed="13.89"/>
    <edge id="-194923774#1" from="42437786" to="42452117" priority="4" type="highway.primary" numLanes="2" speed="13.89"/>
    <edge id="-194923775" from="42427750" to="42427747" priority="7" type="highway.residential" numLanes="1" speed="13.89"/>
    <edge id="-194923778#0" from="42433229" to="42422283" priority="4" type="highway.primary" numLanes="2" speed="13.89"/>
    <edge id="-194923778#1" from="42444271" to="42433229" priority="4" type="highway.primary" numLanes="2" speed="13.89" shape="2807.38,2022.98 2860.94,2082.39 2886.14,2109.19"/>
    <edge id="-194923778#2" from="42440270" to="42444271" priority="4" type="highway.primary" numLanes="2" speed="13.89" shape="2755.78,1952.75 2802.57,2018.35 2807.38,2022.98"/>
    <edge id="-194923783#0" from="1754817317" to="42437749" priority="4" type="highway.secondary" numLanes="2" speed="13.89"/>
    <edge id="-194923783#1" from="42439813" to="1754817317" priority="4" type="highway.secondary" numLanes="2" speed="13.89"/>
    <edge id="-194923783#2" from="526592039" to="42439813" priority="4" type="highway.secondary" numLanes="2" speed="13.89" shape="3238.74,2601.17 3235.58,2594.57 3186.76,2529.27"/>
    <edge id="-194923791" from="42444897" to="42436439" priority="4" type="highway.primary" numLanes="2" speed="13.89"/>
    <edge id="-194923798#0" from="42427300" to="42445466" priority="7" type="highway.residential" numLanes="1" speed="13.89"/>
    <edge id="-194923798#1" from="1253070985" to="42427300" priority="7" type="highway.residential" numLanes="1" speed="13.89"/>
    <edge id="-194923798#2" from="1251908577" to="1253070985" priority="7" type="highway.residential" numLanes="1" speed="13.89" shape="3064.51,2716.42 3018.28,2744.64 2972.05,2772.87 2925.82,2801.09"/>
    <edge id="-194923798#3" from="42425955" to="1251908577" priority="7" type="highway.residential" numLanes="1" speed="13.89"/>
    <edge id="-194923798#4" from="42435434" to="42425955" priority="7" type="highway.residential" numLanes="1" speed="13.89"/>
    <edge id="-194923798#5" from="588455743" to="42435434" priority="7" type="highway.residential" numLanes="1" speed="13.89" shape="3214.00,2628.24 3194.52,2637.65 3156.98,2659.98"/>
    <edge id="-194926839" from="42448707" to="42442889" priority="4" type="highway.secondary" numLanes="2" speed="13.89"/>
    <edge id="-194926840" from="42445392" to="406048768" priority="4" type="highway.primary" numLanes="2" speed="13.89"/>
    <edge id="-195743138" from="42431902" to="42431898" priority="4" type="highway.unclassified" numLanes="1" speed="13.89"/>
    <edge id="-195743157" from="42443127" to="1918039877" priority="4" type="highway.secondary" numLanes="2" speed="13.89"/>
    <edge id="-195743164#0" from="1251605891" to="42428493" priority="4" type="highway.primary" numLanes="2" speed="13.89"/>
    <edge id="-195743164#1" from="42440721" to="1251605891" priority="4" type="highway.primary" numLanes="2" speed="13.89"/>
    <edge id="-195743164#2" from="42434352" to="42440721" priority="4" type="highway.primary" numLanes="2" speed="13.89"/>
    <edge id="-195743164#3" from="42440729" to="42434352" priority="4" type="highway.primary" numLanes="2" speed="13.89"/>
    <edge id="-195743164#4" from="42440737" to="42440729" priority="4" type="highway.primary" numLanes="2" speed="13.89"/>
    <edge id="-195743164#5" from="42440743" to="42440737" priority="4" type="highway.primary" numLanes="2" speed="13.89"/>
    <edge id="-195743189#0" from="246894646" to="42429570" priority="4" type="highway.secondary" numLanes="2" speed="13.89"/>
    <edge id="-195743189#1" from="246858435" to="246894646" priority="4" type="highway.secondary" numLanes="2" speed="13.89"/>
    <edge id="-195743195#0" from="42440628" to="42427412" priority="4" type="highway.unclassified" numLanes="1" speed="13.89"/>
    <edge id="-195743195#1" from="42440639" to="42440628" priority="4" type="highway.unclassified" numLanes="1" speed="13.89"/>
    <edge id="-195743195#2" from="42437401" to="42440639" priority="4" type="highway.unclassified" numLanes="1" speed="13.89" shape="1712.79,2233.49 1705.39,2208.43 1697.97,2187.87 1689.36,2167.31 1680.79,2149.67"/>
    <edge id="-195743197#0" from="246866806" to="373880031" priority="4" type="highway.unclassified" numLanes="1" speed="13.89"/>
    <edge id="-195743197#1" from="561949901" to="246866806" priority="4" type="highway.unclassified" numLanes="1" speed="13.89"/>
    <edge id="-195743197#2" from="588592974" to="561949901" priority="4" type="highway.unclassified" numLanes="1" speed="13.89"/>
    <edge id="-195743197#3" from="42446854" to="588592974" priority="4" type="highway.unclassified" numLanes="1" speed="13.89"/>
    <edge id="-195743199#0" from="1251359553" to="42431898" priority="4" type="highway.primary" numLanes="2" speed="13.89"/>
    <edge id="-195743199#1" from="42445569" to="1251359553" priority="4" type="highway.primary" numLanes="2" speed="13.89"/>
    <edge id="-195743199#10" from="42427251" to="42454798" priority="4" type="highway.primary" numLanes="2" speed="13.89"/>
    <edge id="-195743199#11" from="42440350" to="42427251" priority="4" type="highway.primary" numLanes="2" speed="13.89"/>
    <edge id="-195743199#12" from="42440270" to="42440350" priority="4" type="highway.primary" numLanes="2" speed="13.89"/>
    <edge id="-195743199#2" from="1251359563" to="42445569" priority="4" type="highway.primary" numLanes="2" speed="13.89"/>
    <edge id="-195743199#3" from="42421960" to="1251359563" priority="4" type="highway.primary" numLanes="2" speed="13.89"/>
    <edge id="-195743199#4" from="42421941" to="42421960" priority="4" type="highway.primary" numLanes="2" speed="13.89"/>
    <edge id="-195743199#5" from="42454600" to="42421941" priority="4" type="highway.primary" numLanes="2" speed="13.89"/>
    <edge id="-195743199#6" from="2186614207" to="42454600" priority="4" type="highway.primary" numLanes="2" speed="13.89"/>
    <edge id="-195743199#7" from="42453902" to="2186614207" priority="4" type="highway.primary" numLanes="2" speed="13.89"/>
    <edge id="-195743199#8" from="42429844" to="42453902" priority="4" type="highway.primary" numLanes="2" speed="13.89"/>
    <edge id="-195743199#9" from="42454798" to="42429844" priority="4" type="highway.primary" numLanes="2" speed="13.89"/>
    <edge id="-195743267#0" from="889585049" to="42427412" priority="4" type="highway.unclassified" numLanes="1" speed="13.89" shape="1569.38,2084.80 1618.22,2057.51 1628.41,2051.83"/>
    <edge id="-195743267#1" from="272196176" to="889585049" priority="4" type="highway.unclassified" numLanes="1" speed="13.89" shape="1564.79,2088.54 1559.57,2088.63 1557.34,2087.15 1555.51,2083.73 1556.45,2078.85 1559.78,2076.19 1564.22,2076.14 1567.64,2078.75 1569.38,2084.80"/>
    <edge id="-195743267#2" from="889585049" to="272196176" priority="4" type="highway.unclassified" numLanes="1" speed="13.89"/>
    <edge id="-195743271" from="42427412" to="42427411" priority="4" type="highway.unclassified" numLanes="1" speed="13.89" shape="1628.41,2051.83 1638.99,2046.16 1694.02,2016.70"/>
    <edge id="-195743554#0" from="1775270664" to="42455039" priority="4" type="highway.secondary" numLanes="1" speed="13.89"/>
    <edge id="-195743554#1" from="42453604" to="1775270664" priority="4" type="highway.secondary" numLanes="1" speed="13.89"/>
    <edge id="-195743554#10" from="42454997" to="42430914" priority="4" type="highway.secondary" numLanes="1" speed="13.89"/>
    <edge id="-195743554#11" from="42446552" to="42454997" priority="4" type="highway.secondary" numLanes="1" speed="13.89"/>
    <edge id="-195743554#12" from="42436944" to="42446552" priority="4" type="highway.secondary" numLanes="1" speed="13.89"/>
    <edge id="-195743554#13" from="42439006" to="42436944" priority="4" type="highway.secondary" numLanes="1" speed="13.89"/>
    <edge id="-195743554#2" from="42437343" to="42453604" priority="4" type="highway.secondary" numLanes="1" speed="13.89"/>
    <edge id="-195743554#3" from="42455051" to="42437343" priority="4" type="highway.secondary" numLanes="1" speed="13.89"/>
    <edge id="-195743554#4" from="42453175" to="42455051" priority="4" type="highway.secondary" numLanes="1" speed="13.89"/>
    <edge id="-195743554#5" from="42444829" to="42453175" priority="4" type="highway.secondary" numLanes="1" speed="13.89"/>
    <edge id="-195743554#6" from="42434215" to="42444829" priority="4" type="highway.secondary" numLanes="1" speed="13.89"/>
    <edge id="-195743554#7" from="42434148" to="42434215" priority="4" type="highway.secondary" numLanes="1" speed="13.89"/>
    <edge id="-195743554#8" from="42449023" to="42434148" priority="4" type="highway.secondary" numLanes="1" speed="13.89"/>
    <edge id="-195743554#9" from="42430914" to="42449023" priority="4" type="highway.secondary" numLanes="1" speed="13.89"/>
    <edge id="-195743555#0" from="42432199" to="42432194" priority="4" type="highway.secondary" numLanes="2" speed="13.89"/>
    <edge id="-195743555#1" from="42432201" to="42432199" priority="4" type="highway.secondary" numLanes="2" speed="13.89"/>
    <edge id="-195743555#2" from="42430828" to="42432201" priority="4" type="highway.secondary" numLanes="2" speed="13.89"/>
    <edge id="-195743555#3" from="42432205" to="42430828" priority="4" type="highway.secondary" numLanes="2" speed="13.89"/>
    <edge id="-195743555#4" from="42432208" to="42432205" priority="4" type="highway.secondary" numLanes="2" speed="13.89"/>
    <edge id="-195743555#5" from="42432211" to="42432208" priority="4" type="highway.secondary" numLanes="2" speed="13.89"/>
    <edge id="-195743555#6" from="42429378" to="42432211" priority="4" type="highway.secondary" numLanes="2" speed="13.89"/>
    <edge id="-195745911#0" from="42440792" to="42440679" priority="4" type="highway.secondary" numLanes="2" speed="13.89"/>
    <edge id="-195745911#1" from="42437967" to="42440792" priority="4" type="highway.secondary" numLanes="2" speed="13.89"/>
    <edge id="-196117011#0" from="42433549" to="42433547" priority="4" type="highway.secondary" numLanes="2" speed="13.89"/>
    <edge id="-196117011#1" from="42433550" to="42433549" priority="4" type="highway.secondary" numLanes="2" speed="13.89"/>
    <edge id="-196117011#2" from="42433551" to="42433550" priority="4" type="highway.secondary" numLanes="2" speed="13.89"/>
    <edge id="-196117014" from="42433537" to="588455742" priority="7" type="highway.residential" numLanes="1" speed="13.89" shape="3319.80,2627.27 3290.91,2624.45 3280.44,2628.85 3262.28,2649.72"/>
    <edge id="-196117051#0" from="42429888" to="42456555" priority="4" type="highway.secondary" numLanes="2" speed="13.89"/>
    <edge id="-196117051#1" from="42454522" to="42429888" priority="4" type="highway.secondary" numLanes="2" speed="13.89"/>
    <edge id="-196117051#2" from="42446266" to="42454522" priority="4" type="highway.secondary" numLanes="2" speed="13.89"/>
    <edge id="-196117051#3" from="42436748" to="42446266" priority="4" type="highway.secondary" numLanes="2" speed="13.89"/>
    <edge id="-196117051#4" from="42445409" to="42436748" priority="4" type="highway.secondary" numLanes="2" speed="13.89"/>
    <edge id="-196117051#5" from="42456568" to="42445409" priority="4" type="highway.secondary" numLanes="2" speed="13.89"/>
    <edge id="-196117051#6" from="42449308" to="42456568" priority="4" type="highway.secondary" numLanes="2" speed="13.89" shape="4547.28,6232.09 4542.26,6221.59 4509.94,6161.78"/>
    <edge id="-196117059" from="246866830" to="42446825" priority="7" type="highway.residential" numLanes="1" speed="13.89"/>
    <edge id="-196117073" from="42439823" to="42430253" priority="4" type="highway.primary" numLanes="2" speed="13.89"/>
    <edge id="-196117074#0" from="42435596" to="42439823" priority="4" type="highway.primary" numLanes="2" speed="13.89"/>
    <edge id="-196117074#1" from="42436439" to="42435596" priority="4" type="highway.primary" numLanes="2" speed="13.89"/>
    <edge id="-196117075#0" from="42454325" to="42444897" priority="4" type="highway.primary" numLanes="2" speed="13.89"/>
    <edge id="-196117075#1" from="42454328" to="42454325" priority="4" type="highway.primary" numLanes="2" speed="13.89"/>
    <edge id="-221157082#0" from="2302133933" to="42449906" priority="7" type="highway.residential" numLanes="1" speed="13.89"/>
    <edge id="-221157082#1" from="42456555" to="2302133933" priority="7" type="highway.residential" numLanes="1" speed="13.89"/>
    <edge id="-226040985#0" from="42431629" to="246866828" priority="7" type="highway.residential" numLanes="1" speed="13.89"/>
    <edge id="-226040985#1" from="42431630" to="42431629" priority="7" type="highway.residential" numLanes="1" speed="13.89"/>
    <edge id="-226040986#0" from="42423813" to="42431617" priority="4" type="highway.secondary" numLanes="2" speed="13.89" shape="2023.91,3009.06 2105.73,2961.45 2126.98,2949.14 2161.76,2928.88"/>
    <edge id="-226040986#1" from="42431626" to="42423813" priority="4" type="highway.secondary" numLanes="2" speed="13.89"/>
    <edge id="-226040986#2" from="246858448" to="42431626" priority="4" type="highway.secondary" numLanes="2" speed="13.89"/>