<?xml version="1.0" encoding="UTF-8"?>

<!-- generated on Wed Oct 23 15:00:32 2013 by SUMO netconvert Version 0.17.1
<?xml version="1.0" encoding="UTF-8"?>

<configuration xmlns:xsi="http://www.w3.org/2001/XMLSchema-instance" xsi:noNamespaceSchemaLocation="http://sumo.sf.net/xsd/netconvertConfiguration.xsd">

    <input>
        <sumo-net-file value="manhattan.net.xml"/>
    </input>

    <output>
        <plain-output-prefix value="manhattan"/>
    </output>

    <processing>
        <no-turnarounds value="true"/>
        <offset.disable-normalization value="true"/>
    </processing>

</configuration>
-->

<connections version="0.13" xmlns:xsi="http://www.w3.org/2001/XMLSchema-instance" xsi:noNamespaceSchemaLocation="http://sumo.sf.net/xsd/connections_file.xsd">
    <connection from="-106877213" to="-106877221" fromLane="0" toLane="0"/>

    <connection from="-106877214" to="106877219#0" fromLane="0" toLane="0"/>

    <connection from="-106877215" to="-106877213" fromLane="0" toLane="0"/>

    <connection from="-106877217#0" to="106877223#0" fromLane="0" toLane="0"/>

    <connection from="-106877217#1" to="106877218#1" fromLane="0" toLane="0"/>
    <connection from="-106877217#1" to="-106877217#0" fromLane="0" toLane="0"/>
    <connection from="-106877217#1" to="-106877218#0" fromLane="0" toLane="0"/>

    <connection from="-106877218#0" to="5669860#3" fromLane="0" toLane="0"/>

    <connection from="-106877218#1" to="-106877217#0" fromLane="0" toLane="0"/>
    <connection from="-106877218#1" to="-106877218#0" fromLane="0" toLane="0"/>
    <connection from="-106877218#1" to="106877217#1" fromLane="0" toLane="0"/>

    <connection from="-106877219#0" to="106877214" fromLane="0" toLane="0"/>

    <connection from="-106877219#1" to="-106877218#1" fromLane="0" toLane="0"/>
    <connection from="-106877219#1" to="-106877219#0" fromLane="0" toLane="0"/>

    <connection from="-106877221" to="-106877222#1" fromLane="0" toLane="0"/>

    <connection from="-106877222#0" to="5669860#2" fromLane="0" toLane="0"/>
    <connection from="-106877222#0" to="5671404#0" fromLane="0" toLane="0"/>

    <connection from="-106877222#1" to="-106877215" fromLane="0" toLane="0"/>
    <connection from="-106877222#1" to="-106877222#0" fromLane="0" toLane="0"/>

    <connection from="-106877223#0" to="106877217#0" fromLane="0" toLane="0"/>

    <connection from="-106877223#1" to="-106877223#0" fromLane="0" toLane="0"/>
    <connection from="-106877223#1" to="-106877219#1" fromLane="0" toLane="0"/>

    <connection from="-110777345#0" to="-195745911#1" fromLane="0" toLane="0"/>
    <connection from="-110777345#0" to="-195745911#1" fromLane="1" toLane="1"/>
    <connection from="-110777345#0" to="110777346#0" fromLane="1" toLane="1"/>

    <connection from="-110777345#1" to="46139048#4" fromLane="0" toLane="0"/>
    <connection from="-110777345#1" to="-110777345#0" fromLane="0" toLane="0"/>
    <connection from="-110777345#1" to="-110777345#0" fromLane="1" toLane="1"/>

    <connection from="-110777345#2" to="-110777345#1" fromLane="0" toLane="1"/>
    <connection from="-110777345#2" to="127691872#0" fromLane="1" toLane="0"/>

    <connection from="-116672333#1" to="-116672333#0" fromLane="0" toLane="0"/>
    <connection from="-116672333#1" to="-116672333#0" fromLane="1" toLane="1"/>

    <connection from="-116672333#2" to="-116672333#1" fromLane="0" toLane="0"/>
    <connection from="-116672333#2" to="-116672333#1" fromLane="1" toLane="1"/>

    <connection from="-116672333#3" to="-116672333#2" fromLane="0" toLane="0"/>
    <connection from="-116672333#3" to="-116672333#2" fromLane="1" toLane="1"/>
    <connection from="-116672333#3" to="194926856#9" fromLane="1" toLane="1"/>

    <connection from="-116672333#4" to="-116672333#3" fromLane="0" toLane="0"/>
    <connection from="-116672333#4" to="-116672333#3" fromLane="1" toLane="1"/>

    <connection from="-116672333#5" to="127693383#0" fromLane="0" toLane="0"/>
    <connection from="-116672333#5" to="-116672333#4" fromLane="0" toLane="0"/>
    <connection from="-116672333#5" to="-116672333#4" fromLane="1" toLane="1"/>

    <connection from="-116672333#6" to="-116672333#5" fromLane="0" toLane="0"/>
    <connection from="-116672333#6" to="-116672333#5" fromLane="1" toLane="1"/>
    <connection from="-116672333#6" to="5670836#7" fromLane="1" toLane="1"/>

    <connection from="-116672333#7" to="196117090#9" fromLane="0" toLane="0"/>
    <connection from="-116672333#7" to="-116672333#6" fromLane="0" toLane="0"/>
    <connection from="-116672333#7" to="-116672333#6" fromLane="1" toLane="1"/>

    <connection from="-116672631" to="95181768#16" fromLane="0" toLane="0"/>

    <connection from="-125524912#0" to="-196117014" fromLane="0" toLane="0"/>
    <connection from="-125524912#0" to="5670536#2" fromLane="1" toLane="0"/>

    <connection from="-125524912#1" to="5672911#4" fromLane="0" toLane="0"/>
    <connection from="-125524912#1" to="-125524912#0" fromLane="1" toLane="0"/>

    <connection from="-125524912#2" to="127691870" fromLane="0" toLane="0"/>
    <connection from="-125524912#2" to="-125524912#1" fromLane="0" toLane="1"/>
    <connection from="-125524912#2" to="5671928" fromLane="1" toLane="0"/>

    <connection from="-125525165#0" to="-125525171#4" fromLane="0" toLane="0"/>

    <connection from="-125525165#1" to="-125525165#0" fromLane="0" toLane="0"/>

    <connection from="-125525171#0" to="194923781#0" fromLane="0" toLane="0"/>
    <connection from="-125525171#0" to="-5670613#11" fromLane="0" toLane="0"/>

    <connection from="-125525171#1" to="5672402#2" fromLane="0" toLane="0"/>
    <connection from="-125525171#1" to="-125525171#0" fromLane="0" toLane="0"/>

    <connection from="-125525171#2" to="-125525171#1" fromLane="0" toLane="0"/>

    <connection from="-125525171#3" to="5670888#2" fromLane="0" toLane="0"/>
    <connection from="-125525171#3" to="-125525171#2" fromLane="0" toLane="0"/>

    <connection from="-125525171#4" to="-5670709#1" fromLane="0" toLane="0"/>
    <connection from="-125525171#4" to="-125525171#3" fromLane="0" toLane="0"/>
    <connection from="-125525171#4" to="5670709#2" fromLane="0" toLane="1"/>

    <connection from="-126573396" to="-22909196" fromLane="0" toLane="0"/>

    <connection from="-127690685" to="46171887#0" fromLane="0" toLane="0"/>
    <connection from="-127690685" to="-5670026#3" fromLane="1" toLane="0"/>

    <connection from="-127690687#0" to="-196117059" fromLane="0" toLane="0"/>

    <connection from="-127690687#1" to="-127690687#0" fromLane="0" toLane="0"/>
    <connection from="-127690687#1" to="95181772#16" fromLane="0" toLane="2"/>

    <connection from="-127691874#0" to="5669662" fromLane="0" toLane="0"/>
    <connection from="-127691874#0" to="-125525165#1" fromLane="0" toLane="0"/>
    <connection from="-127691874#0" to="46348787" fromLane="0" toLane="0"/>

    <connection from="-127691874#1" to="-127691874#0" fromLane="0" toLane="0"/>

    <connection from="-127691875" to="-46116314" fromLane="0" toLane="0"/>
    <connection from="-127691875" to="5670026#0" fromLane="1" toLane="0"/>

    <connection from="-134484064" to="194926842#1" fromLane="0" toLane="0"/>

    <connection from="-140391514#1" to="-140391514#0" fromLane="0" toLane="0"/>
    <connection from="-140391514#1" to="140391516#0" fromLane="0" toLane="0"/>

    <connection from="-140391516#0" to="140391514#1" fromLane="0" toLane="0"/>
    <connection from="-140391516#0" to="-140391514#0" fromLane="0" toLane="0"/>

    <connection from="-140391516#1" to="-140391516#0" fromLane="0" toLane="0"/>
    <connection from="-140391516#1" to="-140391518" fromLane="0" toLane="0"/>

    <connection from="-140391522#0" to="46116326" fromLane="0" toLane="0"/>
    <connection from="-140391522#0" to="222299275#0" fromLane="0" toLane="1"/>

    <connection from="-140391522#1" to="46160365#6" fromLane="0" toLane="0"/>
    <connection from="-140391522#1" to="-140391522#0" fromLane="0" toLane="0"/>

    <connection from="-140391522#2" to="5671615#11" fromLane="0" toLane="0"/>
    <connection from="-140391522#2" to="-140391522#1" fromLane="0" toLane="0"/>

    <connection from="-144183267#0" to="-144183268" fromLane="0" toLane="0"/>
    <connection from="-144183267#0" to="-144183267#1" fromLane="0" toLane="0"/>

    <connection from="-144183267#1" to="-144183267#0" fromLane="0" toLane="0"/>

    <connection from="-144183268" to="46201649" fromLane="0" toLane="0"/>
    <connection from="-144183268" to="-47796678" fromLane="0" toLane="0"/>

    <connection from="-144922117#0" to="-37722272#0" fromLane="0" toLane="0"/>
    <connection from="-144922117#0" to="37722272#1" fromLane="0" toLane="0"/>

    <connection from="-144922117#1" to="-144922117#0" fromLane="0" toLane="0"/>

    <connection from="-157012388" to="-157012396" fromLane="0" toLane="0"/>

    <connection from="-157012389" to="-157012397" fromLane="0" toLane="0"/>

    <connection from="-157012390" to="-157012388" fromLane="0" toLane="0"/>

    <connection from="-157012391" to="-157012395" fromLane="0" toLane="0"/>

    <connection from="-157012392" to="-157012394" fromLane="0" toLane="0"/>

    <connection from="-157012393" to="-157012389" fromLane="0" toLane="0"/>

    <connection from="-157012394" to="157012386#7" fromLane="0" toLane="0"/>

    <connection from="-157012395" to="5670897#3" fromLane="0" toLane="0"/>

    <connection from="-157012396" to="-157012392" fromLane="0" toLane="0"/>

    <connection from="-157012397" to="-157012391" fromLane="0" toLane="0"/>

    <connection from="-157405685" to="75311776#0" fromLane="0" toLane="0"/>
    <connection from="-157405685" to="-75311776#1" fromLane="0" toLane="0"/>

    <connection from="-160801658" to="160801660#3" fromLane="0" toLane="0"/>
    <connection from="-160801658" to="-160801660#2" fromLane="0" toLane="0"/>

    <connection from="-160801660#0" to="46201651#1" fromLane="0" toLane="0"/>
    <connection from="-160801660#0" to="-46201651#0" fromLane="0" toLane="0"/>

    <connection from="-160801660#1" to="-160801660#0" fromLane="0" toLane="0"/>

    <connection from="-160801660#2" to="-160801660#1" fromLane="0" toLane="0"/>
    <connection from="-160801660#2" to="-160801660#3" fromLane="0" toLane="0"/>

    <connection from="-160801660#3" to="160801658" fromLane="0" toLane="0"/>
    <connection from="-160801660#3" to="-160801660#2" fromLane="0" toLane="0"/>

    <connection from="-160942006" to="5672190#2" fromLane="0" toLane="0"/>

    <connection from="-161026133#1" to="-161026133#0" fromLane="0" toLane="0"/>
    <connection from="-161026133#1" to="-161026131" fromLane="0" toLane="0"/>

    <connection from="-163806028#1" to="-163806028#0" fromLane="0" toLane="0"/>

    <connection from="-165731797#0" to="25562079#0" fromLane="0" toLane="0"/>
    <connection from="-165731797#0" to="25562074" fromLane="1" toLane="0"/>
    <connection from="-165731797#0" to="-5671204#1" fromLane="1" toLane="0"/>
    <connection from="-165731797#0" to="-25564571" fromLane="1" toLane="0"/>

    <connection from="-165731797#1" to="25562090" fromLane="0" toLane="0"/>
    <connection from="-165731797#1" to="-165731797#0" fromLane="1" toLane="0"/>
    <connection from="-165731797#1" to="-165731797#0" fromLane="1" toLane="1"/>
    <connection from="-165731797#1" to="5669420" fromLane="1" toLane="0"/>

    <connection from="-165777195#0" to="5669857#0" fromLane="0" toLane="0"/>
    <connection from="-165777195#0" to="165777194#1" fromLane="0" toLane="0"/>
    <connection from="-165777195#0" to="165777194#1" fromLane="1" toLane="1"/>
    <connection from="-165777195#0" to="5669892#0" fromLane="1" toLane="1"/>

    <connection from="-165777195#1" to="-165777195#0" fromLane="0" toLane="1"/>
    <connection from="-165777195#1" to="5670084#0" fromLane="1" toLane="0"/>

    <connection from="-165777195#2" to="68668546#12" fromLane="0" toLane="0"/>
    <connection from="-165777195#2" to="-165777195#1" fromLane="0" toLane="0"/>
    <connection from="-165777195#2" to="-165777195#1" fromLane="1" toLane="1"/>

    <connection from="-165777195#3" to="-165777195#2" fromLane="0" toLane="1"/>
    <connection from="-165777195#3" to="5671339#1" fromLane="1" toLane="0"/>

    <connection from="-165777195#4" to="-165777195#3" fromLane="0" toLane="0"/>
    <connection from="-165777195#4" to="-165777195#3" fromLane="1" toLane="1"/>

    <connection from="-165777195#5" to="-165777195#4" fromLane="0" toLane="0"/>
    <connection from="-165777195#5" to="-165777195#4" fromLane="1" toLane="1"/>

    <connection from="-165781912#0" to="46608205#0" fromLane="0" toLane="0"/>

    <connection from="-165781912#1" to="5672198#3" fromLane="0" toLane="0"/>
    <connection from="-165781912#1" to="-165781912#0" fromLane="0" toLane="0"/>
    <connection from="-165781912#1" to="-165781912#0" fromLane="1" toLane="1"/>

    <connection from="-165781912#2" to="-165781912#1" fromLane="0" toLane="0"/>
    <connection from="-165781912#2" to="-165781912#1" fromLane="1" toLane="1"/>

    <connection from="-166038132#0" to="166038145" fromLane="0" toLane="0"/>
    <connection from="-166038132#0" to="166038145" fromLane="1" toLane="1"/>

    <connection from="-166038132#1" to="5671339#0" fromLane="0" toLane="0"/>
    <connection from="-166038132#1" to="-166038132#0" fromLane="1" toLane="0"/>
    <connection from="-166038132#1" to="-166038132#0" fromLane="1" toLane="1"/>

    <connection from="-166038132#2" to="-166038132#1" fromLane="0" toLane="1"/>
    <connection from="-166038132#2" to="40709929" fromLane="1" toLane="1"/>

    <connection from="-166038132#3" to="5670079" fromLane="0" toLane="0"/>
    <connection from="-166038132#3" to="-166038132#2" fromLane="1" toLane="0"/>
    <connection from="-166038132#3" to="-166038132#2" fromLane="1" toLane="1"/>

    <connection from="-183010767" to="5670092#12" fromLane="0" toLane="0"/>

    <connection from="-188494945" to="-25167167" fromLane="0" toLane="0"/>

    <connection from="-194923755#0" to="-46201655#2" fromLane="0" toLane="0"/>
    <connection from="-194923755#0" to="-32937066#2" fromLane="1" toLane="1"/>

    <connection from="-194923755#1" to="-194923755#0" fromLane="0" toLane="0"/>
    <connection from="-194923755#1" to="-194923755#0" fromLane="1" toLane="1"/>

    <connection from="-194923760" to="5671457#0" fromLane="0" toLane="0"/>
    <connection from="-194923760" to="-226040985#1" fromLane="0" toLane="0"/>

    <connection from="-194923762" to="25167210#9" fromLane="0" toLane="0"/>
    <connection from="-194923762" to="-194923763#1" fromLane="0" toLane="0"/>
    <connection from="-194923762" to="-25167210#8" fromLane="0" toLane="0"/>

    <connection from="-194923763#0" to="5672646#10" fromLane="0" toLane="0"/>
    <connection from="-194923763#0" to="-25166891#1" fromLane="0" toLane="0"/>
    <connection from="-194923763#0" to="-5672646#9" fromLane="0" toLane="0"/>

    <connection from="-194923763#1" to="-194923763#0" fromLane="0" toLane="0"/>

    <connection from="-194923764#0" to="5670756#0" fromLane="0" toLane="0"/>
    <connection from="-194923764#0" to="-68668526" fromLane="1" toLane="0"/>
    <connection from="-194923764#0" to="-195743554#13" fromLane="1" toLane="0"/>

    <connection from="-194923764#1" to="-46608336" fromLane="0" toLane="0"/>
    <connection from="-194923764#1" to="-194923764#0" fromLane="1" toLane="1"/>
    <connection from="-194923764#1" to="-5672621#12" fromLane="1" toLane="0"/>

    <connection from="-194923764#2" to="188366388" fromLane="0" toLane="0"/>
    <connection from="-194923764#2" to="-194923764#1" fromLane="1" toLane="0"/>
    <connection from="-194923764#2" to="-194923764#1" fromLane="1" toLane="1"/>

    <connection from="-194923765" to="-68668521#2" fromLane="0" toLane="0"/>
    <connection from="-194923765" to="-68668521#2" fromLane="1" toLane="1"/>
    <connection from="-194923765" to="162041587" fromLane="1" toLane="1"/>

    <connection from="-194923768#0" to="-68668559#2" fromLane="0" toLane="0"/>
    <connection from="-194923768#0" to="-5673410#1" fromLane="0" toLane="0"/>
    <connection from="-194923768#0" to="194923770" fromLane="0" toLane="1"/>

    <connection from="-194923768#1" to="-194923768#0" fromLane="0" toLane="0"/>
    <connection from="-194923768#1" to="39956200" fromLane="0" toLane="0"/>

    <connection from="-194923769" to="-194923774#1" fromLane="0" toLane="0"/>
    <connection from="-194923769" to="-127691874#1" fromLane="1" toLane="0"/>

    <connection from="-194923770" to="194923768#0" fromLane="0" toLane="0"/>
    <connection from="-194923770" to="-68668559#2" fromLane="1" toLane="1"/>
    <connection from="-194923770" to="-5673410#1" fromLane="1" toLane="0"/>

    <connection from="-194923773#0" to="5671343#0" fromLane="0" toLane="0"/>
    <connection from="-194923773#0" to="-226041015" fromLane="1" toLane="0"/>
    <connection from="-194923773#0" to="-226041015" fromLane="1" toLane="1"/>

    <connection from="-194923773#1" to="-194923773#0" fromLane="0" toLane="0"/>
    <connection from="-194923773#1" to="-194923773#0" fromLane="1" toLane="1"/>
    <connection from="-194923773#1" to="-46348792" fromLane="1" toLane="0"/>

    <connection from="-194923774#0" to="-194923773#1" fromLane="0" toLane="0"/>
    <connection from="-194923774#0" to="-46348791" fromLane="1" toLane="0"/>

    <connection from="-194923774#1" to="-5672093#1" fromLane="0" toLane="0"/>
    <connection from="-194923774#1" to="-194923774#0" fromLane="1" toLane="1"/>

    <connection from="-194923775" to="-46348787" fromLane="0" toLane="0"/>

    <connection from="-194923778#0" to="5670703#0" fromLane="0" toLane="0"/>
    <connection from="-194923778#0" to="-165731797#1" fromLane="0" toLane="0"/>
    <connection from="-194923778#0" to="-165731797#1" fromLane="1" toLane="1"/>
    <connection from="-194923778#0" to="-5671593#2" fromLane="1" toLane="1"/>

    <connection from="-194923778#1" to="-39956205" fromLane="0" toLane="0"/>
    <connection from="-194923778#1" to="-194923778#0" fromLane="1" toLane="1"/>

    <connection from="-194923778#2" to="-194923778#1" fromLane="0" toLane="1"/>
    <connection from="-194923778#2" to="40956096#0" fromLane="1" toLane="0"/>

    <connection from="-194923783#0" to="-5671717#1" fromLane="0" toLane="1"/>
    <connection from="-194923783#0" to="5670613#0" fromLane="1" toLane="0"/>

    <connection from="-194923783#1" to="-194923783#0" fromLane="0" toLane="0"/>
    <connection from="-194923783#1" to="-194923783#0" fromLane="1" toLane="1"/>

    <connection from="-194923783#2" to="-194923783#1" fromLane="0" toLane="0"/>
    <connection from="-194923783#2" to="-194923783#1" fromLane="0" toLane="1"/>
    <connection from="-194923783#2" to="5670832" fromLane="1" toLane="0"/>

    <connection from="-194923791" to="5670451#0" fromLane="0" toLane="0"/>
    <connection from="-194923791" to="-196117074#1" fromLane="1" toLane="0"/>

    <connection from="-194923798#0" to="-5672110#4" fromLane="0" toLane="0"/>
    <connection from="-194923798#0" to="194923776#0" fromLane="0" toLane="1"/>

    <connection from="-194923798#1" to="125436141#0" fromLane="0" toLane="0"/>
    <connection from="-194923798#1" to="-194923798#0" fromLane="0" toLane="0"/>

    <connection from="-194923798#2" to="-194923798#1" fromLane="0" toLane="0"/>

    <connection from="-194923798#3" to="-194923798#2" fromLane="0" toLane="0"/>

    <connection from="-194923798#4" to="5672410" fromLane="0" toLane="0"/>
    <connection from="-194923798#4" to="-194923798#3" fromLane="0" toLane="0"/>

    <connection from="-194923798#5" to="5670366#0" fromLane="0" toLane="0"/>
    <connection from="-194923798#5" to="-194923798#4" fromLane="0" toLane="0"/>

    <connection from="-194926839" to="-5671620#6" fromLane="0" toLane="1"/>
    <connection from="-194926839" to="157014136#0" fromLane="1" toLane="3"/>

    <connection from="-194926840" to="144158892" fromLane="0" toLane="0"/>
    <connection from="-194926840" to="-34769546" fromLane="1" toLane="0"/>
    <connection from="-194926840" to="-34769546" fromLane="1" toLane="1"/>
    <connection from="-194926840" to="5670317#0" fromLane="1" toLane="0"/>

    <connection from="-195743138" to="195743199#0" fromLane="0" toLane="0"/>
    <connection from="-195743138" to="-37890350#5" fromLane="0" toLane="0"/>
    <connection from="-195743138" to="-5673078" fromLane="0" toLane="1"/>

    <connection from="-195743157" to="-46139043#3" fromLane="0" toLane="1"/>
    <connection from="-195743157" to="195743178#0" fromLane="1" toLane="2"/>

    <connection from="-195743164#0" to="-5670924#2" fromLane="0" toLane="0"/>
    <connection from="-195743164#0" to="-5670924#2" fromLane="1" toLane="1"/>
    <connection from="-195743164#0" to="5669742#0" fromLane="1" toLane="1"/>

    <connection from="-195743164#1" to="-195743164#0" fromLane="0" toLane="0"/>
    <connection from="-195743164#1" to="-195743164#0" fromLane="1" toLane="1"/>

    <connection from="-195743164#2" to="34080149#0" fromLane="0" toLane="0"/>
    <connection from="-195743164#2" to="-195743164#1" fromLane="0" toLane="0"/>
    <connection from="-195743164#2" to="-195743164#1" fromLane="1" toLane="1"/>

    <connection from="-195743164#3" to="5670254#0" fromLane="0" toLane="0"/>
    <connection from="-195743164#3" to="-195743164#2" fromLane="0" toLane="0"/>
    <connection from="-195743164#3" to="-195743164#2" fromLane="1" toLane="1"/>

    <connection from="-195743164#4" to="5671774#7" fromLane="0" toLane="0"/>
    <connection from="-195743164#4" to="-195743164#3" fromLane="1" toLane="1"/>
    <connection from="-195743164#4" to="-5671774#6" fromLane="1" toLane="1"/>

    <connection from="-195743164#5" to="-195743164#4" fromLane="0" toLane="1"/>
    <connection from="-195743164#5" to="118400726#0" fromLane="1" toLane="1"/>

    <connection from="-195743189#0" to="-46165812" fromLane="0" toLane="1"/>
    <connection from="-195743189#0" to="195743228#0" fromLane="1" toLane="3"/>

    <connection from="-195743189#1" to="-195743189#0" fromLane="0" toLane="0"/>
    <connection from="-195743189#1" to="-195743189#0" fromLane="1" toLane="1"/>

    <connection from="-195743195#0" to="195743267#0" fromLane="0" toLane="0"/>
    <connection from="-195743195#0" to="-5671084" fromLane="0" toLane="0"/>
    <connection from="-195743195#0" to="-195743271" fromLane="0" toLane="0"/>

    <connection from="-195743195#1" to="-5670915#3" fromLane="0" toLane="0"/>
    <connection from="-195743195#1" to="-195743195#0" fromLane="0" toLane="0"/>
    <connection from="-195743195#1" to="5670915#0" fromLane="0" toLane="0"/>

    <connection from="-195743195#2" to="5670915#2" fromLane="0" toLane="0"/>
    <connection from="-195743195#2" to="-195743195#1" fromLane="0" toLane="0"/>
    <connection from="-195743195#2" to="-5670915#1" fromLane="0" toLane="0"/>

    <connection from="-195743197#0" to="195743227" fromLane="0" toLane="0"/>
    <connection from="-195743197#0" to="-44225575" fromLane="0" toLane="0"/>

    <connection from="-195743197#1" to="-195743197#0" fromLane="0" toLane="0"/>

    <connection from="-195743197#2" to="-195743197#1" fromLane="0" toLane="0"/>

    <connection from="-195743197#3" to="-195743197#2" fromLane="0" toLane="0"/>

    <connection from="-195743199#0" to="-37890350#5" fromLane="0" toLane="0"/>
    <connection from="-195743199#0" to="-5673078" fromLane="0" toLane="0"/>
    <connection from="-195743199#0" to="-5673078" fromLane="1" toLane="1"/>
    <connection from="-195743199#0" to="195743138" fromLane="1" toLane="0"/>

    <connection from="-195743199#1" to="-195743199#0" fromLane="0" toLane="0"/>
    <connection from="-195743199#1" to="-195743199#0" fromLane="1" toLane="1"/>

    <connection from="-195743199#10" to="46334639#0" fromLane="0" toLane="0"/>
    <connection from="-195743199#10" to="-195743199#9" fromLane="0" toLane="0"/>
    <connection from="-195743199#10" to="-195743199#9" fromLane="1" toLane="1"/>
    <connection from="-195743199#10" to="-5672550#1" fromLane="1" toLane="1"/>

    <connection from="-195743199#11" to="-195743199#10" fromLane="0" toLane="0"/>
    <connection from="-195743199#11" to="-195743199#10" fromLane="1" toLane="1"/>
    <connection from="-195743199#11" to="5669633#1" fromLane="1" toLane="0"/>

    <connection from="-195743199#12" to="-38605246#0" fromLane="0" toLane="0"/>
    <connection from="-195743199#12" to="-195743199#11" fromLane="0" toLane="0"/>
    <connection from="-195743199#12" to="-195743199#11" fromLane="1" toLane="1"/>
    <connection from="-195743199#12" to="38605246#1" fromLane="1" toLane="0"/>

    <connection from="-195743199#2" to="5671326" fromLane="0" toLane="0"/>
    <connection from="-195743199#2" to="-195743199#1" fromLane="0" toLane="0"/>
    <connection from="-195743199#2" to="-195743199#1" fromLane="1" toLane="1"/>

    <connection from="-195743199#3" to="-195743199#2" fromLane="0" toLane="0"/>
    <connection from="-195743199#3" to="-195743199#2" fromLane="1" toLane="1"/>

    <connection from="-195743199#4" to="-46160403" fromLane="0" toLane="0"/>
    <connection from="-195743199#4" to="-195743199#3" fromLane="1" toLane="1"/>
    <connection from="-195743199#4" to="5669000#0" fromLane="1" toLane="0"/>

    <connection from="-195743199#5" to="-195743199#4" fromLane="0" toLane="0"/>
    <connection from="-195743199#5" to="-195743199#4" fromLane="1" toLane="1"/>

    <connection from="-195743199#6" to="-195743199#5" fromLane="0" toLane="0"/>
    <connection from="-195743199#6" to="-195743199#5" fromLane="1" toLane="1"/>
    <connection from="-195743199#6" to="5672499#0" fromLane="1" toLane="0"/>

    <connection from="-195743199#7" to="-195743199#6" fromLane="0" toLane="0"/>
    <connection from="-195743199#7" to="-195743199#6" fromLane="1" toLane="1"/>

    <connection from="-195743199#8" to="-195743199#7" fromLane="0" toLane="0"/>
    <connection from="-195743199#8" to="-195743199#7" fromLane="1" toLane="1"/>
    <connection from="-195743199#8" to="37722271#4" fromLane="1" toLane="0"/>

    <connection from="-195743199#9" to="46154338#0" fromLane="0" toLane="0"/>
    <connection from="-195743199#9" to="-195743199#8" fromLane="0" toLane="0"/>
    <connection from="-195743199#9" to="-195743199#8" fromLane="1" toLane="1"/>

    <connection from="-195743267#0" to="-5671084" fromLane="0" toLane="0"/>
    <connection from="-195743267#0" to="-195743271" fromLane="0" toLane="0"/>
    <connection from="-195743267#0" to="195743195#0" fromLane="0" toLane="0"/>

    <connection from="-195743267#1" to="-195743267#0" fromLane="0" toLane="0"/>
    <connection from="-195743267#1" to="-195743267#2" fromLane="0" toLane="0"/>

    <connection from="-195743267#2" to="-195743267#1" fromLane="0" toLane="0"/>

    <connection from="-195743271" to="-46160404#7" fromLane="0" toLane="0"/>
    <connection from="-195743271" to="-22928102#2" fromLane="0" toLane="0"/>

    <connection from="-195743554#0" to="68325065#2" fromLane="0" toLane="0"/>
    <connection from="-195743554#0" to="-46201668#3" fromLane="0" toLane="0"/>

    <connection from="-195743554#1" to="5671111#0" fromLane="0" toLane="0"/>
    <connection from="-195743554#1" to="-195743554#0" fromLane="0" toLane="0"/>

    <connection from="-195743554#10" to="-195743554#9" fromLane="0" toLane="0"/>
    <connection from="-195743554#10" to="25166891#0" fromLane="0" toLane="0"/>

    <connection from="-195743554#11" to="5672604#2" fromLane="0" toLane="0"/>
    <connection from="-195743554#11" to="-195743554#10" fromLane="0" toLane="0"/>

    <connection from="-195743554#12" to="-195743554#11" fromLane="0" toLane="0"/>
    <connection from="-195743554#12" to="5671429#7" fromLane="0" toLane="0"/>

    <connection from="-195743554#13" to="25162679#1" fromLane="0" toLane="0"/>
    <connection from="-195743554#13" to="-195743554#12" fromLane="0" toLane="0"/>

    <connection from="-195743554#2" to="25163419#3" fromLane="0" toLane="0"/>
    <connection from="-195743554#2" to="-195743554#1" fromLane="0" toLane="0"/>

    <connection from="-195743554#3" to="125528659#2" fromLane="0" toLane="0"/>
    <connection from="-195743554#3" to="-195743554#2" fromLane="0" toLane="0"/>

    <connection from="-195743554#4" to="-195743554#3" fromLane="0" toLane="0"/>
    <connection from="-195743554#4" to="5673093#6" fromLane="0" toLane="0"/>

    <connection from="-195743554#5" to="-195743554#4" fromLane="0" toLane="0"/>

    <connection from="-195743554#6" to="-195743554#5" fromLane="0" toLane="0"/>
    <connection from="-195743554#6" to="46608205#4" fromLane="0" toLane="0"/>

    <connection from="-195743554#7" to="46582968#4" fromLane="0" toLane="0"/>
    <connection from="-195743554#7" to="-195743554#6" fromLane="0" toLane="0"/>

    <connection from="-195743554#8" to="-195743554#7" fromLane="0" toLane="0"/>

    <connection from="-195743554#9" to="5671659#0" fromLane="0" toLane="0"/>
    <connection from="-195743554#9" to="-195743554#8" fromLane="0" toLane="0"/>

    <connection from="-195743555#0" to="-5670087#1" fromLane="0" toLane="0"/>
    <connection from="-195743555#0" to="-5670087#1" fromLane="1" toLane="1"/>
    <connection from="-195743555#0" to="195743556#0" fromLane="1" toLane="0"/>

    <connection from="-195743555#1" to="5672073#0" fromLane="0" toLane="0"/>
    <connection from="-195743555#1" to="-195743555#0" fromLane="0" toLane="0"/>
    <connection from="-195743555#1" to="-195743555#0" fromLane="1" toLane="1"/>

    <connection from="-195743555#2" to="-195743555#1" fromLane="0" toLane="0"/>
    <connection from="-195743555#2" to="-195743555#1" fromLane="1" toLane="1"/>

    <connection from="-195743555#3" to="5671668#2" fromLane="0" toLane="0"/>
    <connection from="-195743555#3" to="5669953#0" fromLane="0" toLane="0"/>
    <connection from="-195743555#3" to="-195743555#2" fromLane="1" toLane="0"/>

    <connection from="-195743555#4" to="-195743555#3" fromLane="0" toLane="0"/>
    <connection from="-195743555#4" to="-195743555#3" fromLane="1" toLane="1"/>
